
OS:Version,
  {85e596b4-6a64-4b92-b6ff-fe2a6ab32e5d}, !- Handle
  2.9.0;                                  !- Version Identifier

OS:DefaultConstructionSet,
  {fbf0d82c-79fb-4b9b-b142-fb18a1d5b256}, !- Handle
  90.1-2019 - ASHRAE 169-2013-3C,         !- Name
  {a80ecf7e-6973-4c40-9a73-125c358bfaee}, !- Default Exterior Surface Constructions Name
  {eaa27758-00b8-49af-b978-65d1eaefa1a0}, !- Default Interior Surface Constructions Name
  {c41549ad-98fd-4fdc-a36e-601c7f7f18eb}, !- Default Ground Contact Surface Constructions Name
  {f496f3a3-8650-4eb7-9cf0-7f6cfe3b50e3}, !- Default Exterior SubSurface Constructions Name
  {c77d6171-6c3f-46da-bd79-1346da36ba11}, !- Default Interior SubSurface Constructions Name
  {0f3f9827-8c43-4b5e-8ee5-71f326f93012}, !- Interior Partition Construction Name
  ,                                       !- Space Shading Construction Name
  ,                                       !- Building Shading Construction Name
  ,                                       !- Site Shading Construction Name
  ;                                       !- Adiabatic Surface Construction Name

OS:DefaultSurfaceConstructions,
  {a80ecf7e-6973-4c40-9a73-125c358bfaee}, !- Handle
  Default Surface Constructions 25,       !- Name
  ,                                       !- Floor Construction Name
  {7b8e3d2f-e29b-4ffc-86ab-51325c10c01d}, !- Wall Construction Name
  {1b70b4bd-f9db-40d9-9735-b011224da26e}; !- Roof Ceiling Construction Name

OS:DefaultSurfaceConstructions,
  {eaa27758-00b8-49af-b978-65d1eaefa1a0}, !- Handle
  Default Surface Constructions 26,       !- Name
  {37e339ff-5b19-42f8-aa18-ddf94e91f0ba}, !- Floor Construction Name
  {9593fc6a-e0a2-4d92-bca9-31f28df2976f}, !- Wall Construction Name
  {8c64e6f8-f438-44f9-aee7-a2b7573f7f6b}; !- Roof Ceiling Construction Name

OS:DefaultSurfaceConstructions,
  {c41549ad-98fd-4fdc-a36e-601c7f7f18eb}, !- Handle
  Default Surface Constructions 27,       !- Name
  {e3cc092b-4db8-4ccc-90af-cbeb9ea6b2bf}, !- Floor Construction Name
  ,                                       !- Wall Construction Name
  ;                                       !- Roof Ceiling Construction Name

OS:DefaultSubSurfaceConstructions,
  {f496f3a3-8650-4eb7-9cf0-7f6cfe3b50e3}, !- Handle
  Default Sub Surface Constructions 17,   !- Name
  {8efb25f1-ce07-4002-90d9-975a47b5792a}, !- Fixed Window Construction Name
  {c3d4d698-2376-4dda-b227-52fbc322ec39}, !- Operable Window Construction Name
  {0b666af7-9378-4509-882d-99dc69aa9003}, !- Door Construction Name
  ,                                       !- Glass Door Construction Name
  {0b666af7-9378-4509-882d-99dc69aa9003}, !- Overhead Door Construction Name
  ,                                       !- Skylight Construction Name
  {0552a0dd-7dbc-40ef-87a4-0143d0c8ed3c}, !- Tubular Daylight Dome Construction Name
  {0552a0dd-7dbc-40ef-87a4-0143d0c8ed3c}; !- Tubular Daylight Diffuser Construction Name

OS:DefaultSubSurfaceConstructions,
  {c77d6171-6c3f-46da-bd79-1346da36ba11}, !- Handle
  Default Sub Surface Constructions 18,   !- Name
  {0552a0dd-7dbc-40ef-87a4-0143d0c8ed3c}, !- Fixed Window Construction Name
  {0552a0dd-7dbc-40ef-87a4-0143d0c8ed3c}, !- Operable Window Construction Name
  {84470688-bf48-4f2b-8e8e-810e0c5c196c}, !- Door Construction Name
  ,                                       !- Glass Door Construction Name
  ,                                       !- Overhead Door Construction Name
  ,                                       !- Skylight Construction Name
  ,                                       !- Tubular Daylight Dome Construction Name
  ;                                       !- Tubular Daylight Diffuser Construction Name

OS:Construction,
  {0f3f9827-8c43-4b5e-8ee5-71f326f93012}, !- Handle
  Typical Interior Partition,             !- Name
  ,                                       !- Surface Rendering Name
  {9c82b95e-a69c-4950-a46c-bbe10f71412e}; !- Layer 1

OS:StandardsInformation:Construction,
  {8588b1ac-0425-46c3-a723-94a4c865bb48}, !- Handle
  {0f3f9827-8c43-4b5e-8ee5-71f326f93012}, !- Construction Name
  InteriorPartition,                      !- Intended Surface Type
  ;                                       !- Standards Construction Type

OS:Construction,
  {7b8e3d2f-e29b-4ffc-86ab-51325c10c01d}, !- Handle
  Typical Insulated Wood Framed Exterior Wall R-15.63, !- Name
  ,                                       !- Surface Rendering Name
  {6dc1520a-077d-47c8-b865-915cef6d9048}, !- Layer 1
  {d2ff1491-0b78-462c-b91a-2602dbba4f0d}, !- Layer 2
  {2805fda2-8907-4e41-b8fb-c56b16184cb8}, !- Layer 3
  {d2ff1491-0b78-462c-b91a-2602dbba4f0d}; !- Layer 4

OS:StandardsInformation:Construction,
  {d549c10c-4b1b-4156-96de-cb5f3161ffd2}, !- Handle
  {7b8e3d2f-e29b-4ffc-86ab-51325c10c01d}, !- Construction Name
  ExteriorWall,                           !- Intended Surface Type
  WoodFramed;                             !- Standards Construction Type

OS:Construction,
  {1b70b4bd-f9db-40d9-9735-b011224da26e}, !- Handle
  Typical IEAD Roof R-25.64,              !- Name
  ,                                       !- Surface Rendering Name
  {9f33253d-3e46-411e-82f6-057e3d188c9d}, !- Layer 1
  {9fb6c72a-a894-4710-86da-b482ae5a257f}, !- Layer 2
  {203f05a0-5a4d-4ebf-b954-ef204ac6556b}; !- Layer 3

OS:StandardsInformation:Construction,
  {4d2495b1-11ef-4386-8517-2f9e64cc5083}, !- Handle
  {1b70b4bd-f9db-40d9-9735-b011224da26e}, !- Construction Name
  ExteriorRoof,                           !- Intended Surface Type
  IEAD;                                   !- Standards Construction Type

OS:Construction,
  {37e339ff-5b19-42f8-aa18-ddf94e91f0ba}, !- Handle
  Typical Interior Floor,                 !- Name
  ,                                       !- Surface Rendering Name
  {a75880e0-5636-4452-8ac2-ab61ce3ef2c0}, !- Layer 1
  {7f31948a-f8ee-4637-a276-fcf6e9f8a3c3}; !- Layer 2

OS:StandardsInformation:Construction,
  {d2f53085-3e79-48a1-bfb8-c8d1b932c525}, !- Handle
  {37e339ff-5b19-42f8-aa18-ddf94e91f0ba}, !- Construction Name
  InteriorFloor,                          !- Intended Surface Type
  ;                                       !- Standards Construction Type

OS:Construction,
  {9593fc6a-e0a2-4d92-bca9-31f28df2976f}, !- Handle
  Typical Interior Wall,                  !- Name
  ,                                       !- Surface Rendering Name
  {80f42bb9-ab6f-4c9c-a553-dd2a8a1e46c7}, !- Layer 1
  {80f42bb9-ab6f-4c9c-a553-dd2a8a1e46c7}; !- Layer 2

OS:StandardsInformation:Construction,
  {583115bd-e67e-4aa7-869c-153eae1219a0}, !- Handle
  {9593fc6a-e0a2-4d92-bca9-31f28df2976f}, !- Construction Name
  InteriorWall,                           !- Intended Surface Type
  ;                                       !- Standards Construction Type

OS:Construction,
  {8c64e6f8-f438-44f9-aee7-a2b7573f7f6b}, !- Handle
  Typical Interior Ceiling,               !- Name
  ,                                       !- Surface Rendering Name
  {7f31948a-f8ee-4637-a276-fcf6e9f8a3c3}, !- Layer 1
  {a75880e0-5636-4452-8ac2-ab61ce3ef2c0}; !- Layer 2

OS:StandardsInformation:Construction,
  {a76cf0e8-4ea5-43cd-8cad-d7b700690137}, !- Handle
  {8c64e6f8-f438-44f9-aee7-a2b7573f7f6b}, !- Construction Name
  InteriorCeiling,                        !- Intended Surface Type
  ;                                       !- Standards Construction Type

OS:Construction,
  {e3cc092b-4db8-4ccc-90af-cbeb9ea6b2bf}, !- Handle
  Typical Insulated Carpeted 8in Slab Floor, !- Name
  ,                                       !- Surface Rendering Name
  {1da7f46d-3d00-4223-8074-8d7fea0293bc}, !- Layer 1
  {8e2b3dec-8ce4-4576-a0e5-ee1650a610ec}; !- Layer 2

OS:StandardsInformation:Construction,
  {4739143d-d1e0-43a4-b26c-efac2cef87b3}, !- Handle
  {e3cc092b-4db8-4ccc-90af-cbeb9ea6b2bf}, !- Construction Name
  GroundContactFloor,                     !- Intended Surface Type
  Mass;                                   !- Standards Construction Type

OS:Construction,
  {8efb25f1-ce07-4002-90d9-975a47b5792a}, !- Handle
  U 0.42 SHGC 0.25 Simple Glazing Window U-0.42 SHGC 0.25, !- Name
  ,                                       !- Surface Rendering Name
  {e99c63a2-bc3c-446c-86f1-ff22b2b02911}; !- Layer 1

OS:StandardsInformation:Construction,
  {5934fb4c-8985-496d-ad0f-46e05a70830a}, !- Handle
  {8efb25f1-ce07-4002-90d9-975a47b5792a}, !- Construction Name
  ExteriorWindow,                         !- Intended Surface Type
  Metal framing (all other),              !- Standards Construction Type
  ,                                       !- Perturbable Layer
  ,                                       !- Perturbable Layer Type
  ,                                       !- Other Perturbable Layer Type
  ,                                       !- Construction Standard
  ,                                       !- Construction Standard Source
  ,                                       !- Fenestration Type
  ,                                       !- Fenestration Assembly Context
  ,                                       !- Fenestration Number of Panes
  Metal Framing;                          !- Fenestration Frame Type

OS:Construction,
  {c3d4d698-2376-4dda-b227-52fbc322ec39}, !- Handle
  U 0.54 SHGC 0.23 Simple Glazing Window U-0.54 SHGC 0.23, !- Name
  ,                                       !- Surface Rendering Name
  {38877af3-dc53-476a-bee1-29e587f8ae75}; !- Layer 1

OS:StandardsInformation:Construction,
  {ec209f47-1a67-4e28-a361-386e542ee690}, !- Handle
  {c3d4d698-2376-4dda-b227-52fbc322ec39}, !- Construction Name
  ExteriorWindow,                         !- Intended Surface Type
  Metal framing (all other),              !- Standards Construction Type
  ,                                       !- Perturbable Layer
  ,                                       !- Perturbable Layer Type
  ,                                       !- Other Perturbable Layer Type
  ,                                       !- Construction Standard
  ,                                       !- Construction Standard Source
  ,                                       !- Fenestration Type
  ,                                       !- Fenestration Assembly Context
  ,                                       !- Fenestration Number of Panes
  Metal Framing;                          !- Fenestration Frame Type

OS:Construction,
  {0b666af7-9378-4509-882d-99dc69aa9003}, !- Handle
  Typical Insulated Metal Door R-2.7,     !- Name
  ,                                       !- Surface Rendering Name
  {a0ebcb71-388e-4877-85ad-dab5d15ce302}, !- Layer 1
  {796f54a4-a9e0-45d6-ba1d-7379258fda32}; !- Layer 2

OS:StandardsInformation:Construction,
  {1370606f-fbf9-4835-920c-58efb909d2ba}, !- Handle
  {0b666af7-9378-4509-882d-99dc69aa9003}, !- Construction Name
  ExteriorDoor,                           !- Intended Surface Type
  ;                                       !- Standards Construction Type

OS:Construction,
  {0552a0dd-7dbc-40ef-87a4-0143d0c8ed3c}, !- Handle
  Typical Interior Window,                !- Name
  ,                                       !- Surface Rendering Name
  {88efc87f-d30a-4a41-89af-bd6e285703fc}; !- Layer 1

OS:StandardsInformation:Construction,
  {9f592785-c57e-40ab-9989-afe8954a63e2}, !- Handle
  {0552a0dd-7dbc-40ef-87a4-0143d0c8ed3c}, !- Construction Name
  InteriorWindow,                         !- Intended Surface Type
  ;                                       !- Standards Construction Type

OS:Construction,
  {84470688-bf48-4f2b-8e8e-810e0c5c196c}, !- Handle
  Typical Interior Door,                  !- Name
  ,                                       !- Surface Rendering Name
  {9c82b95e-a69c-4950-a46c-bbe10f71412e}; !- Layer 1

OS:StandardsInformation:Construction,
  {7f70e512-0f80-41e0-ae3d-c69b9e5053ee}, !- Handle
  {84470688-bf48-4f2b-8e8e-810e0c5c196c}, !- Construction Name
  InteriorDoor,                           !- Intended Surface Type
  ;                                       !- Standards Construction Type

OS:Material,
  {9c82b95e-a69c-4950-a46c-bbe10f71412e}, !- Handle
  G05 25mm wood,                          !- Name
  MediumSmooth,                           !- Roughness
  0.0254,                                 !- Thickness {m}
  0.15,                                   !- Conductivity {W/m-K}
  608,                                    !- Density {kg/m3}
  1630,                                   !- Specific Heat {J/kg-K}
  0.9,                                    !- Thermal Absorptance
  0.5,                                    !- Solar Absorptance
  0.5;                                    !- Visible Absorptance

OS:Material,
  {6dc1520a-077d-47c8-b865-915cef6d9048}, !- Handle
  25mm Stucco,                            !- Name
  Smooth,                                 !- Roughness
  0.0254,                                 !- Thickness {m}
  0.719999999999999,                      !- Conductivity {W/m-K}
  1855.99999999999,                       !- Density {kg/m3}
  839.999999999997,                       !- Specific Heat {J/kg-K}
  0.9,                                    !- Thermal Absorptance
  0.7,                                    !- Solar Absorptance
  0.7;                                    !- Visible Absorptance

OS:Material,
  {d2ff1491-0b78-462c-b91a-2602dbba4f0d}, !- Handle
  5/8 in. Gypsum Board,                   !- Name
  MediumSmooth,                           !- Roughness
  0.0159,                                 !- Thickness {m}
  0.159999999999999,                      !- Conductivity {W/m-K}
  799.999999999999,                       !- Density {kg/m3}
  1090,                                   !- Specific Heat {J/kg-K}
  0.9,                                    !- Thermal Absorptance
  0.7,                                    !- Solar Absorptance
  0.7;                                    !- Visible Absorptance

OS:Material:NoMass,
  {2805fda2-8907-4e41-b8fb-c56b16184cb8}, !- Handle
  Typical Insulation R-13.45,             !- Name
  Smooth,                                 !- Roughness
  2.36800018612829,                       !- Thermal Resistance {m2-K/W}
  0.9,                                    !- Thermal Absorptance
  0.7,                                    !- Solar Absorptance
  0.7;                                    !- Visible Absorptance

OS:Material,
  {9f33253d-3e46-411e-82f6-057e3d188c9d}, !- Handle
  Roof Membrane,                          !- Name
  VeryRough,                              !- Roughness
  0.0095,                                 !- Thickness {m}
  0.16,                                   !- Conductivity {W/m-K}
  1121.29,                                !- Density {kg/m3}
  1460,                                   !- Specific Heat {J/kg-K}
  0.9,                                    !- Thermal Absorptance
  0.7,                                    !- Solar Absorptance
  0.7;                                    !- Visible Absorptance

OS:Material:NoMass,
  {9fb6c72a-a894-4710-86da-b482ae5a257f}, !- Handle
  Typical Insulation R-24.52,             !- Name
  Smooth,                                 !- Roughness
  4.31888712432702,                       !- Thermal Resistance {m2-K/W}
  0.9,                                    !- Thermal Absorptance
  0.7,                                    !- Solar Absorptance
  0.7;                                    !- Visible Absorptance

OS:Material,
  {203f05a0-5a4d-4ebf-b954-ef204ac6556b}, !- Handle
  Metal Roof Surface,                     !- Name
  Smooth,                                 !- Roughness
  0.000799999999999998,                   !- Thickness {m}
  45.2799999999999,                       !- Conductivity {W/m-K}
  7823.99999999999,                       !- Density {kg/m3}
  499.999999999996,                       !- Specific Heat {J/kg-K}
  0.9,                                    !- Thermal Absorptance
  0.7,                                    !- Solar Absorptance
  0.7;                                    !- Visible Absorptance

OS:Material,
  {a75880e0-5636-4452-8ac2-ab61ce3ef2c0}, !- Handle
  100mm Normalweight concrete floor,      !- Name
  MediumRough,                            !- Roughness
  0.1016,                                 !- Thickness {m}
  2.31044676686054,                       !- Conductivity {W/m-K}
  2322.00146636525,                       !- Density {kg/m3}
  832.5567858096,                         !- Specific Heat {J/kg-K}
  ,                                       !- Thermal Absorptance
  0,                                      !- Solar Absorptance
  0;                                      !- Visible Absorptance

OS:Material:NoMass,
  {7f31948a-f8ee-4637-a276-fcf6e9f8a3c3}, !- Handle
  CP02 CARPET PAD,                        !- Name
  Smooth,                                 !- Roughness
  0.216479986995276,                      !- Thermal Resistance {m2-K/W}
  0.9,                                    !- Thermal Absorptance
  0.7,                                    !- Solar Absorptance
  0.8;                                    !- Visible Absorptance

OS:Material,
  {80f42bb9-ab6f-4c9c-a553-dd2a8a1e46c7}, !- Handle
  G01 13mm gypsum board,                  !- Name
  Smooth,                                 !- Roughness
  0.0127,                                 !- Thickness {m}
  0.160030944416258,                      !- Conductivity {W/m-K}
  800.000505207667,                       !- Density {kg/m3}
  1090.7294438736,                        !- Specific Heat {J/kg-K}
  0.9,                                    !- Thermal Absorptance
  0.7,                                    !- Solar Absorptance
  0.5;                                    !- Visible Absorptance

OS:Material,
  {1da7f46d-3d00-4223-8074-8d7fea0293bc}, !- Handle
  8 in. Normalweight Concrete Floor,      !- Name
  MediumRough,                            !- Roughness
  0.2032,                                 !- Thickness {m}
  2.31,                                   !- Conductivity {W/m-K}
  2321.99999999999,                       !- Density {kg/m3}
  831.999999999997,                       !- Specific Heat {J/kg-K}
  0.9,                                    !- Thermal Absorptance
  0.7,                                    !- Solar Absorptance
  0.7;                                    !- Visible Absorptance

OS:Material:NoMass,
  {8e2b3dec-8ce4-4576-a0e5-ee1650a610ec}, !- Handle
  Typical Carpet Pad,                     !- Name
  Smooth,                                 !- Roughness
  0.216479986995276,                      !- Thermal Resistance {m2-K/W}
  0.9,                                    !- Thermal Absorptance
  0.7,                                    !- Solar Absorptance
  0.8;                                    !- Visible Absorptance

OS:WindowMaterial:SimpleGlazingSystem,
  {e99c63a2-bc3c-446c-86f1-ff22b2b02911}, !- Handle
  U 0.42 SHGC 0.25 Simple Glazing U-0.65 SHGC 0.25, !- Name
  3.70897449963867,                       !- U-Factor {W/m2-K}
  0.25,                                   !- Solar Heat Gain Coefficient
  0.275;                                  !- Visible Transmittance

OS:WindowMaterial:SimpleGlazingSystem,
  {38877af3-dc53-476a-bee1-29e587f8ae75}, !- Handle
  U 0.54 SHGC 0.23 Simple Glazing U-1.0 SHGC 0.23, !- Name
  5.66776747541827,                       !- U-Factor {W/m2-K}
  0.23,                                   !- Solar Heat Gain Coefficient
  0.253;                                  !- Visible Transmittance

OS:Material,
  {a0ebcb71-388e-4877-85ad-dab5d15ce302}, !- Handle
  F08 Metal surface,                      !- Name
  Smooth,                                 !- Roughness
  0.0008,                                 !- Thickness {m}
  45.2800000000001,                       !- Conductivity {W/m-K}
  7823.99999999999,                       !- Density {kg/m3}
  500,                                    !- Specific Heat {J/kg-K}
  0.9,                                    !- Thermal Absorptance
  0.7,                                    !- Solar Absorptance
  0.7;                                    !- Visible Absorptance

OS:Material:NoMass,
  {796f54a4-a9e0-45d6-ba1d-7379258fda32}, !- Handle
  Typical Insulation R-1.85,              !- Name
  Smooth,                                 !- Roughness
  0.326262145437155,                      !- Thermal Resistance {m2-K/W}
  0.9,                                    !- Thermal Absorptance
  0.7,                                    !- Solar Absorptance
  0.7;                                    !- Visible Absorptance

OS:WindowMaterial:Glazing,
  {88efc87f-d30a-4a41-89af-bd6e285703fc}, !- Handle
  Clear 3mm,                              !- Name
  SpectralAverage,                        !- Optical Data Type
  ,                                       !- Window Glass Spectral Data Set Name
  0.00299999999999999,                    !- Thickness {m}
  0.837,                                  !- Solar Transmittance at Normal Incidence
  0.075,                                  !- Front Side Solar Reflectance at Normal Incidence
  0.075,                                  !- Back Side Solar Reflectance at Normal Incidence
  0.898,                                  !- Visible Transmittance at Normal Incidence
  0.081,                                  !- Front Side Visible Reflectance at Normal Incidence
  0.081,                                  !- Back Side Visible Reflectance at Normal Incidence
  0,                                      !- Infrared Transmittance at Normal Incidence
  0.84,                                   !- Front Side Infrared Hemispherical Emissivity
  0.84,                                   !- Back Side Infrared Hemispherical Emissivity
  0.9,                                    !- Conductivity {W/m-K}
  1,                                      !- Dirt Correction Factor for Solar and Visible Transmittance
  No;                                     !- Solar Diffusing

OS:DefaultConstructionSet,
  {e29059bc-e3d5-4374-add5-cea23aa2d043}, !- Handle
  90.1-2019 - ASHRAE 169-2013-1B,         !- Name
  {c1810f8b-8495-4cee-9872-a1e1a0e47433}, !- Default Exterior Surface Constructions Name
  {3b33b64d-f5cb-470d-8dcd-75c283aa82b7}, !- Default Interior Surface Constructions Name
  {0cd115b2-a163-47bf-858e-1c0fab8d2ac3}, !- Default Ground Contact Surface Constructions Name
  {a8d8ae5c-9211-424e-af36-b8ee96c01bb0}, !- Default Exterior SubSurface Constructions Name
  {e4f583fb-6752-4d78-b07b-525267fbb2d3}, !- Default Interior SubSurface Constructions Name
  {0f3f9827-8c43-4b5e-8ee5-71f326f93012}, !- Interior Partition Construction Name
  ,                                       !- Space Shading Construction Name
  ,                                       !- Building Shading Construction Name
  ,                                       !- Site Shading Construction Name
  ;                                       !- Adiabatic Surface Construction Name

OS:DefaultSurfaceConstructions,
  {c1810f8b-8495-4cee-9872-a1e1a0e47433}, !- Handle
  Default Surface Constructions 10,       !- Name
  ,                                       !- Floor Construction Name
  {cb03c88c-21b5-4f47-bb72-698c4ae3bfa8}, !- Wall Construction Name
  {baa503a9-33ec-41ab-b405-f95283b7ca2e}; !- Roof Ceiling Construction Name

OS:DefaultSurfaceConstructions,
  {3b33b64d-f5cb-470d-8dcd-75c283aa82b7}, !- Handle
  Default Surface Constructions 11,       !- Name
  {37e339ff-5b19-42f8-aa18-ddf94e91f0ba}, !- Floor Construction Name
  {9593fc6a-e0a2-4d92-bca9-31f28df2976f}, !- Wall Construction Name
  {8c64e6f8-f438-44f9-aee7-a2b7573f7f6b}; !- Roof Ceiling Construction Name

OS:DefaultSurfaceConstructions,
  {0cd115b2-a163-47bf-858e-1c0fab8d2ac3}, !- Handle
  Default Surface Constructions 12,       !- Name
  {e3cc092b-4db8-4ccc-90af-cbeb9ea6b2bf}, !- Floor Construction Name
  ,                                       !- Wall Construction Name
  ;                                       !- Roof Ceiling Construction Name

OS:DefaultSubSurfaceConstructions,
  {a8d8ae5c-9211-424e-af36-b8ee96c01bb0}, !- Handle
  Default Sub Surface Constructions 7,    !- Name
  {6260e7c7-a25e-4dfe-892a-faba33fefbad}, !- Fixed Window Construction Name
  {ac6fdf5f-1067-4d2a-a06a-f11869d5f7ab}, !- Operable Window Construction Name
  {0b666af7-9378-4509-882d-99dc69aa9003}, !- Door Construction Name
  ,                                       !- Glass Door Construction Name
  {0b666af7-9378-4509-882d-99dc69aa9003}, !- Overhead Door Construction Name
  ,                                       !- Skylight Construction Name
  {0552a0dd-7dbc-40ef-87a4-0143d0c8ed3c}, !- Tubular Daylight Dome Construction Name
  {0552a0dd-7dbc-40ef-87a4-0143d0c8ed3c}; !- Tubular Daylight Diffuser Construction Name

OS:DefaultSubSurfaceConstructions,
  {e4f583fb-6752-4d78-b07b-525267fbb2d3}, !- Handle
  Default Sub Surface Constructions 8,    !- Name
  {0552a0dd-7dbc-40ef-87a4-0143d0c8ed3c}, !- Fixed Window Construction Name
  {0552a0dd-7dbc-40ef-87a4-0143d0c8ed3c}, !- Operable Window Construction Name
  {84470688-bf48-4f2b-8e8e-810e0c5c196c}, !- Door Construction Name
  ,                                       !- Glass Door Construction Name
  ,                                       !- Overhead Door Construction Name
  ,                                       !- Skylight Construction Name
  ,                                       !- Tubular Daylight Dome Construction Name
  ;                                       !- Tubular Daylight Diffuser Construction Name

OS:Construction,
  {cb03c88c-21b5-4f47-bb72-698c4ae3bfa8}, !- Handle
  Typical Insulated Wood Framed Exterior Wall R-11.24, !- Name
  ,                                       !- Surface Rendering Name
  {6dc1520a-077d-47c8-b865-915cef6d9048}, !- Layer 1
  {d2ff1491-0b78-462c-b91a-2602dbba4f0d}, !- Layer 2
  {2428e780-2bff-4bcd-881e-1eddd2a7edda}, !- Layer 3
  {d2ff1491-0b78-462c-b91a-2602dbba4f0d}; !- Layer 4

OS:StandardsInformation:Construction,
  {a7289f10-4890-4dfc-9f3d-47e95f66fd06}, !- Handle
  {cb03c88c-21b5-4f47-bb72-698c4ae3bfa8}, !- Construction Name
  ExteriorWall,                           !- Intended Surface Type
  WoodFramed;                             !- Standards Construction Type

OS:Construction,
  {baa503a9-33ec-41ab-b405-f95283b7ca2e}, !- Handle
  Typical IEAD Roof R-20.83,              !- Name
  ,                                       !- Surface Rendering Name
  {9f33253d-3e46-411e-82f6-057e3d188c9d}, !- Layer 1
  {580c0476-3c6b-4de4-af2e-1f21199316b7}, !- Layer 2
  {203f05a0-5a4d-4ebf-b954-ef204ac6556b}; !- Layer 3

OS:StandardsInformation:Construction,
  {fba9f4c9-84b8-4098-9347-e48939336a1b}, !- Handle
  {baa503a9-33ec-41ab-b405-f95283b7ca2e}, !- Construction Name
  ExteriorRoof,                           !- Intended Surface Type
  IEAD;                                   !- Standards Construction Type

OS:Construction,
  {6260e7c7-a25e-4dfe-892a-faba33fefbad}, !- Handle
  U 0.50 SHGC 0.23 Simple Glazing Window U-0.5 SHGC 0.23, !- Name
  ,                                       !- Surface Rendering Name
  {d8211689-87f0-4b0d-9da9-eb74111e926b}; !- Layer 1

OS:StandardsInformation:Construction,
  {a0547399-c212-40d2-a0db-bd31b8d6a468}, !- Handle
  {6260e7c7-a25e-4dfe-892a-faba33fefbad}, !- Construction Name
  ExteriorWindow,                         !- Intended Surface Type
  Metal framing (all other),              !- Standards Construction Type
  ,                                       !- Perturbable Layer
  ,                                       !- Perturbable Layer Type
  ,                                       !- Other Perturbable Layer Type
  ,                                       !- Construction Standard
  ,                                       !- Construction Standard Source
  ,                                       !- Fenestration Type
  ,                                       !- Fenestration Assembly Context
  ,                                       !- Fenestration Number of Panes
  Metal Framing;                          !- Fenestration Frame Type

OS:Construction,
  {ac6fdf5f-1067-4d2a-a06a-f11869d5f7ab}, !- Handle
  U 0.62 SHGC 0.21 Simple Glazing Window U-0.62 SHGC 0.21, !- Name
  ,                                       !- Surface Rendering Name
  {18509dc5-5dea-4b81-a9d2-222845a794a3}; !- Layer 1

OS:StandardsInformation:Construction,
  {7d06b649-44f8-434c-a96a-33579552d4d4}, !- Handle
  {ac6fdf5f-1067-4d2a-a06a-f11869d5f7ab}, !- Construction Name
  ExteriorWindow,                         !- Intended Surface Type
  Metal framing (all other),              !- Standards Construction Type
  ,                                       !- Perturbable Layer
  ,                                       !- Perturbable Layer Type
  ,                                       !- Other Perturbable Layer Type
  ,                                       !- Construction Standard
  ,                                       !- Construction Standard Source
  ,                                       !- Fenestration Type
  ,                                       !- Fenestration Assembly Context
  ,                                       !- Fenestration Number of Panes
  Metal Framing;                          !- Fenestration Frame Type

OS:Material:NoMass,
  {2428e780-2bff-4bcd-881e-1eddd2a7edda}, !- Handle
  Typical Insulation R-9.06,              !- Name
  Smooth,                                 !- Roughness
  1.59504467488221,                       !- Thermal Resistance {m2-K/W}
  0.9,                                    !- Thermal Absorptance
  0.7,                                    !- Solar Absorptance
  0.7;                                    !- Visible Absorptance

OS:Material:NoMass,
  {580c0476-3c6b-4de4-af2e-1f21199316b7}, !- Handle
  Typical Insulation R-19.72,             !- Name
  Smooth,                                 !- Roughness
  3.47220354893132,                       !- Thermal Resistance {m2-K/W}
  0.9,                                    !- Thermal Absorptance
  0.7,                                    !- Solar Absorptance
  0.7;                                    !- Visible Absorptance

OS:WindowMaterial:SimpleGlazingSystem,