
OS:Version,
  {918f5ef8-96da-424c-895a-b1daace0eb8d}, !- Handle
  2.7.2;                                  !- Version Identifier

