
OS:Version,
  {b59ce760-24dc-40b6-9428-f4852f7d0d5e}, !- Handle
  2.7.2;                                  !- Version Identifier

