
OS:Version,
  {abcf8101-a702-4529-b598-8e7a66e57044}, !- Handle
  2.7.2;                                  !- Version Identifier

