
OS:Version,
  {cca4931c-6bb8-4037-ba5d-76bf2b22b61f}, !- Handle
  2.7.2;                                  !- Version Identifier

