
OS:Version,
  {4dc1cb64-5d0f-4c31-9365-c40a3efdb9bc}, !- Handle
  2.7.2;                                  !- Version Identifier

