
OS:Version,
  {3f904c4d-7596-4638-b33a-95a6779a9016}, !- Handle
  2.7.2;                                  !- Version Identifier

