
OS:Version,
  {6b0ad7c7-18c3-4617-ad94-46248eda1468}, !- Handle
  2.7.2;                                  !- Version Identifier

