
OS:Version,
  {58091627-c6ac-45ee-a8da-1e509a29ab9f}, !- Handle
  2.7.2;                                  !- Version Identifier

