
OS:Version,
  {d29759c1-89bd-4664-a9b7-458fbe05879d}, !- Handle
  2.7.2;                                  !- Version Identifier

