
OS:Version,
  {9f1f86b8-e7c6-4655-999d-5883f6dc38f4}, !- Handle
  2.7.2;                                  !- Version Identifier

