
OS:Version,
  {1fd0f87f-1b61-47e0-a4f0-666be7099184}, !- Handle
  2.7.2;                                  !- Version Identifier

