
OS:Version,
  {b8fdc45c-8a6d-4edf-872f-475ed4e96c98}, !- Handle
  2.7.2;                                  !- Version Identifier

