
OS:Version,
  {3b0e1103-337e-408d-a799-f31baa1cdbba}, !- Handle
  2.7.2;                                  !- Version Identifier

