
OS:Version,
  {6f410fdf-6766-4ecf-be8c-f451d92a2541}, !- Handle
  2.7.2;                                  !- Version Identifier

