
OS:Version,
  {280beb0e-af62-4a07-a975-61a3b2659b11}, !- Handle
  2.7.2;                                  !- Version Identifier

