
OS:Version,
  {239293c6-cbf7-4d00-ba63-67011805f6ba}, !- Handle
  2.7.2;                                  !- Version Identifier

