
OS:Version,
  {c61d6544-c42a-4a7f-954b-a9172ce4b31d}, !- Handle
  2.7.2;                                  !- Version Identifier

OS:SpaceType,
  {9d3f7a84-cff7-4178-a330-51abb5faf2f6}, !- Handle
  Office WholeBuilding - Sm Office,       !- Name
  ,                                       !- Default Construction Set Name
  ,                                       !- Default Schedule Set Name
  {74d099a3-8907-44ca-a703-511b10c73c89}, !- Group Rendering Name
  ,                                       !- Design Specification Outdoor Air Object Name
  ,                                       !- Standards Template
  Office,                                 !- Standards Building Type
  WholeBuilding - Sm Office;              !- Standards Space Type

OS:Rendering:Color,
  {74d099a3-8907-44ca-a703-511b10c73c89}, !- Handle
  Office WholeBuilding - Sm Office,       !- Name
  120,                                    !- Rendering Red Value
  230,                                    !- Rendering Green Value
  199;                                    !- Rendering Blue Value

OS:Building,
  {7718929e-0e3f-4a72-a80d-ce447f67dcd3}, !- Handle
  90.1-2004|SmallOffice,                  !- Name
  ,                                       !- Building Sector Type
  ,                                       !- North Axis {deg}
  ,                                       !- Nominal Floor to Floor Height {m}
  ,                                       !- Space Type Name
  ,                                       !- Default Construction Set Name
  ;                                       !- Default Schedule Set Name

OS:Site,
  {0f4666c3-22f6-45a4-839e-1fc7a66e1dc0}, !- Handle
  Site 1,                                 !- Name
  ,                                       !- Latitude {deg}
  ,                                       !- Longitude {deg}
  ,                                       !- Time Zone {hr}
  ,                                       !- Elevation {m}
  ;                                       !- Terrain

OS:BuildingStory,
  {f9308ea4-b9a0-4356-8c8e-568e28444abf}, !- Handle
  Story Ground,                           !- Name
  0,                                      !- Nominal Z Coordinate {m}
  3.048,                                  !- Nominal Floor to Floor Height {m}
  ,                                       !- Default Construction Set Name
  ,                                       !- Default Schedule Set Name
  ;                                       !- Group Rendering Name

OS:Space,
  {44c65981-120d-4f6f-baf0-b21a86365187}, !- Handle
  Office WholeBuilding - Sm Office  - Story Ground, !- Name
  {9d3f7a84-cff7-4178-a330-51abb5faf2f6}, !- Space Type Name
  ,                                       !- Default Construction Set Name
  ,                                       !- Default Schedule Set Name
  -0,                                     !- Direction of Relative North {deg}
  -8.34729177637873,                      !- X Origin {m}
  -5.56486118425249,                      !- Y Origin {m}
  0,                                      !- Z Origin {m}
  {f9308ea4-b9a0-4356-8c8e-568e28444abf}, !- Building Story Name
  {1dfb17ea-ae80-4fd3-b223-581ef644d7f2}; !- Thermal Zone Name

OS:Surface,
  {f62e0fbf-35c3-427c-b839-6b51826199f9}, !- Handle
  Surface 1,                              !- Name
  Floor,                                  !- Surface Type
  ,                                       !- Construction Name
  {44c65981-120d-4f6f-baf0-b21a86365187}, !- Space Name
  Ground,                                 !- Outside Boundary Condition
  ,                                       !- Outside Boundary Condition Object
  NoSun,                                  !- Sun Exposure
  NoWind,                                 !- Wind Exposure
  ,                                       !- View Factor to Ground
  ,                                       !- Number of Vertices
  1.77635683940025e-015, -2.66453525910038e-015, 0, !- X,Y,Z Vertex 1 {m}
  1.77635683940025e-015, 11.129722368505, 0, !- X,Y,Z Vertex 2 {m}
  16.6945835527575, 11.129722368505, 0,   !- X,Y,Z Vertex 3 {m}
  16.6945835527575, -2.66453525910038e-015, 0; !- X,Y,Z Vertex 4 {m}

OS:Surface,
  {630d9b65-e5a3-4b36-9938-d55b2351e1a0}, !- Handle
  Surface 2,                              !- Name
  Wall,                                   !- Surface Type
  ,                                       !- Construction Name
  {44c65981-120d-4f6f-baf0-b21a86365187}, !- Space Name
  Outdoors,                               !- Outside Boundary Condition
  ,                                       !- Outside Boundary Condition Object
  SunExposed,                             !- Sun Exposure
  WindExposed,                            !- Wind Exposure
  ,                                       !- View Factor to Ground
  ,                                       !- Number of Vertices
  1.77635683940025e-015, 11.129722368505, 3.048, !- X,Y,Z Vertex 1 {m}
  1.77635683940025e-015, 11.129722368505, 0, !- X,Y,Z Vertex 2 {m}
  1.77635683940025e-015, -2.66453525910038e-015, 0, !- X,Y,Z Vertex 3 {m}
  1.77635683940025e-015, -2.66453525910038e-015, 3.048; !- X,Y,Z Vertex 4 {m}

OS:Surface,
  {b71dbdbf-5456-437c-83bb-483d625552d2}, !- Handle
  Surface 3,                              !- Name
  Wall,                                   !- Surface Type
  ,                                       !- Construction Name
  {44c65981-120d-4f6f-baf0-b21a86365187}, !- Space Name
  Outdoors,                               !- Outside Boundary Condition
  ,                                       !- Outside Boundary Condition Object
  SunExposed,                             !- Sun Exposure
  WindExposed,                            !- Wind Exposure
  ,                                       !- View Factor to Ground
  ,                                       !- Number of Vertices
  16.6945835527575, 11.129722368505, 3.048, !- X,Y,Z Vertex 1 {m}
  16.6945835527575, 11.129722368505, 0,   !- X,Y,Z Vertex 2 {m}
  1.77635683940025e-015, 11.129722368505, 0, !- X,Y,Z Vertex 3 {m}
  1.77635683940025e-015, 11.129722368505, 3.048; !- X,Y,Z Vertex 4 {m}

OS:Surface,
  {0916cd1c-6700-4a99-80aa-d8bbdaad4329}, !- Handle
  Surface 4,                              !- Name
  Wall,                                   !- Surface Type
  ,                                       !- Construction Name
  {44c65981-120d-4f6f-baf0-b21a86365187}, !- Space Name
  Outdoors,                               !- Outside Boundary Condition
  ,                                       !- Outside Boundary Condition Object
  SunExposed,                             !- Sun Exposure
  WindExposed,                            !- Wind Exposure
  ,                                       !- View Factor to Ground
  ,                                       !- Number of Vertices
  16.6945835527575, -2.66453525910038e-015, 3.048, !- X,Y,Z Vertex 1 {m}
  16.6945835527575, -2.66453525910038e-015, 0, !- X,Y,Z Vertex 2 {m}
  16.6945835527575, 11.129722368505, 0,   !- X,Y,Z Vertex 3 {m}
  16.6945835527575, 11.129722368505, 3.048; !- X,Y,Z Vertex 4 {m}

OS:Surface,
  {ab0df587-0982-473c-bb03-4fb1db224af0}, !- Handle
  Surface 5,                              !- Name
  Wall,                                   !- Surface Type
  ,                                       !- Construction Name
  {44c65981-120d-4f6f-baf0-b21a86365187}, !- Space Name
  Outdoors,                               !- Outside Boundary Condition
  ,                                       !- Outside Boundary Condition Object
  SunExposed,                             !- Sun Exposure
  WindExposed,                            !- Wind Exposure
  ,                                       !- View Factor to Ground
  ,                                       !- Number of Vertices
  1.77635683940025e-015, -2.66453525910038e-015, 3.048, !- X,Y,Z Vertex 1 {m}
  1.77635683940025e-015, -2.66453525910038e-015, 0, !- X,Y,Z Vertex 2 {m}
  16.6945835527575, -2.66453525910038e-015, 0, !- X,Y,Z Vertex 3 {m}
  16.6945835527575, -2.66453525910038e-015, 3.048; !- X,Y,Z Vertex 4 {m}

OS:Surface,
  {afda5b05-f585-4d18-b0b8-d814609d1149}, !- Handle
  Surface 6,                              !- Name
  RoofCeiling,                            !- Surface Type
  ,                                       !- Construction Name
  {44c65981-120d-4f6f-baf0-b21a86365187}, !- Space Name
  Adiabatic,                              !- Outside Boundary Condition
  ,                                       !- Outside Boundary Condition Object
  NoSun,                                  !- Sun Exposure
  NoWind,                                 !- Wind Exposure
  ,                                       !- View Factor to Ground
  ,                                       !- Number of Vertices
  16.6945835527575, -2.66453525910038e-015, 3.048, !- X,Y,Z Vertex 1 {m}
  16.6945835527575, 11.129722368505, 3.048, !- X,Y,Z Vertex 2 {m}
  1.77635683940025e-015, 11.129722368505, 3.048, !- X,Y,Z Vertex 3 {m}
  1.77635683940025e-015, -2.66453525910038e-015, 3.048; !- X,Y,Z Vertex 4 {m}

OS:ThermalZone,
  {1dfb17ea-ae80-4fd3-b223-581ef644d7f2}, !- Handle
  Zone Office WholeBuilding - Sm Office  - Story Ground, !- Name
  1,                                      !- Multiplier
  ,                                       !- Ceiling Height {m}
  ,                                       !- Volume {m3}
  ,                                       !- Floor Area {m2}
  ,                                       !- Zone Inside Convection Algorithm
  ,                                       !- Zone Outside Convection Algorithm
  ,                                       !- Zone Conditioning Equipment List Name
  {2f6dc5a2-79bf-4871-8fd5-dd94a27639be}, !- Zone Air Inlet Port List
  {4cf548c3-78f1-473c-ba5c-f01fa30e41a8}, !- Zone Air Exhaust Port List
  {6f8c78fe-99fb-4b90-a92c-247d667a1378}, !- Zone Air Node Name
  {86f9e4b6-d1cc-48c4-9ead-1dcc5dbd10e5}, !- Zone Return Air Port List
  ,                                       !- Primary Daylighting Control Name
  ,                                       !- Fraction of Zone Controlled by Primary Daylighting Control
  ,                                       !- Secondary Daylighting Control Name
  ,                                       !- Fraction of Zone Controlled by Secondary Daylighting Control
  ,                                       !- Illuminance Map Name
  ,                                       !- Group Rendering Name
  ,                                       !- Thermostat Name
  No;                                     !- Use Ideal Air Loads

OS:Node,
  {f590f8ac-d2a9-4d67-96d7-c2fd303d31e9}, !- Handle
  Node 1,                                 !- Name
  {6f8c78fe-99fb-4b90-a92c-247d667a1378}, !- Inlet Port
  ;                                       !- Outlet Port

OS:Connection,
  {6f8c78fe-99fb-4b90-a92c-247d667a1378}, !- Handle
  {5990560b-4c2a-4aae-9aa8-85cfc1b77407}, !- Name
  {1dfb17ea-ae80-4fd3-b223-581ef644d7f2}, !- Source Object
  11,                                     !- Outlet Port
  {f590f8ac-d2a9-4d67-96d7-c2fd303d31e9}, !- Target Object
  2;                                      !- Inlet Port

OS:PortList,
  {2f6dc5a2-79bf-4871-8fd5-dd94a27639be}, !- Handle
  {30bfa344-57c3-4c29-a969-ca261f353bb2}, !- Name
  {1dfb17ea-ae80-4fd3-b223-581ef644d7f2}; !- HVAC Component

OS:PortList,
  {4cf548c3-78f1-473c-ba5c-f01fa30e41a8}, !- Handle
  {51d7806f-72dc-4b86-8980-8403f3720b98}, !- Name
  {1dfb17ea-ae80-4fd3-b223-581ef644d7f2}; !- HVAC Component

OS:PortList,
  {86f9e4b6-d1cc-48c4-9ead-1dcc5dbd10e5}, !- Handle
  {c7a7d8cb-42c7-44b3-bfe0-e04fd7d96a30}, !- Name
  {1dfb17ea-ae80-4fd3-b223-581ef644d7f2}; !- HVAC Component

OS:Sizing:Zone,
  {598efa58-c311-4b68-9a02-2a4739e5ba1b}, !- Handle
  {1dfb17ea-ae80-4fd3-b223-581ef644d7f2}, !- Zone or ZoneList Name
  SupplyAirTemperature,                   !- Zone Cooling Design Supply Air Temperature Input Method
  14,                                     !- Zone Cooling Design Supply Air Temperature {C}
  11.11,                                  !- Zone Cooling Design Supply Air Temperature Difference {deltaC}
  SupplyAirTemperature,                   !- Zone Heating Design Supply Air Temperature Input Method
  40,                                     !- Zone Heating Design Supply Air Temperature {C}
  11.11,                                  !- Zone Heating Design Supply Air Temperature Difference {deltaC}
  0.0085,                                 !- Zone Cooling Design Supply Air Humidity Ratio {kg-H2O/kg-air}
  0.008,                                  !- Zone Heating Design Supply Air Humidity Ratio {kg-H2O/kg-air}
  ,                                       !- Zone Heating Sizing Factor
  ,                                       !- Zone Cooling Sizing Factor
  DesignDay,                              !- Cooling Design Air Flow Method
  ,                                       !- Cooling Design Air Flow Rate {m3/s}
  ,                                       !- Cooling Minimum Air Flow per Zone Floor Area {m3/s-m2}
  ,                                       !- Cooling Minimum Air Flow {m3/s}
  ,                                       !- Cooling Minimum Air Flow Fraction
  DesignDay,                              !- Heating Design Air Flow Method
  ,                                       !- Heating Design Air Flow Rate {m3/s}
  ,                                       !- Heating Maximum Air Flow per Zone Floor Area {m3/s-m2}
  ,                                       !- Heating Maximum Air Flow {m3/s}
  ,                                       !- Heating Maximum Air Flow Fraction
  ,                                       !- Design Zone Air Distribution Effectiveness in Cooling Mode
  ,                                       !- Design Zone Air Distribution Effectiveness in Heating Mode
  No,                                     !- Account for Dedicated Outdoor Air System
  NeutralSupplyAir,                       !- Dedicated Outdoor Air System Control Strategy
  autosize,                               !- Dedicated Outdoor Air Low Setpoint Temperature for Design {C}
  autosize;                               !- Dedicated Outdoor Air High Setpoint Temperature for Design {C}

OS:ZoneHVAC:EquipmentList,
  {d05b02d5-4f30-45de-ab62-3a7daa0a58c9}, !- Handle
  Zone HVAC Equipment List 1,             !- Name
  {1dfb17ea-ae80-4fd3-b223-581ef644d7f2}; !- Thermal Zone

OS:BuildingStory,
  {ab92eb85-92f0-43f5-b83c-8957a789bb6a}, !- Handle
  Story Mid,                              !- Name
  6.096,                                  !- Nominal Z Coordinate {m}
  3.048,                                  !- Nominal Floor to Floor Height {m}
  ,                                       !- Default Construction Set Name
  ,                                       !- Default Schedule Set Name
  ;                                       !- Group Rendering Name

OS:Space,
  {5699b7cb-b37e-41dd-91f1-eecfdef9c114}, !- Handle
  Office WholeBuilding - Sm Office  - Story Mid, !- Name
  {9d3f7a84-cff7-4178-a330-51abb5faf2f6}, !- Space Type Name
  ,                                       !- Default Construction Set Name
  ,                                       !- Default Schedule Set Name
  -0,                                     !- Direction of Relative North {deg}
  -8.34729177637873,                      !- X Origin {m}
  -5.56486118425249,                      !- Y Origin {m}
  6.096,                                  !- Z Origin {m}
  {ab92eb85-92f0-43f5-b83c-8957a789bb6a}, !- Building Story Name
  {b34fdff9-a280-4e65-aab5-4425968f83f2}; !- Thermal Zone Name

OS:Surface,
  {598fc207-b045-4e72-a6f7-b2848af7048d}, !- Handle
  Surface 7,                              !- Name
  Floor,                                  !- Surface Type
  ,                                       !- Construction Name
  {5699b7cb-b37e-41dd-91f1-eecfdef9c114}, !- Space Name
  Adiabatic,                              !- Outside Boundary Condition
  ,                                       !- Outside Boundary Condition Object
  NoSun,                                  !- Sun Exposure
  NoWind,                                 !- Wind Exposure
  ,                                       !- View Factor to Ground
  ,                                       !- Number of Vertices
  1.77635683940025e-015, -2.66453525910038e-015, 0, !- X,Y,Z Vertex 1 {m}
  1.77635683940025e-015, 11.129722368505, 0, !- X,Y,Z Vertex 2 {m}
  16.6945835527575, 11.129722368505, 0,   !- X,Y,Z Vertex 3 {m}
  16.6945835527575, -2.66453525910038e-015, 0; !- X,Y,Z Vertex 4 {m}

OS:Surface,
  {4b66971b-62e4-4d4f-b666-e0535c085c54}, !- Handle
  Surface 8,                              !- Name
  Wall,                                   !- Surface Type
  ,                                       !- Construction Name
  {5699b7cb-b37e-41dd-91f1-eecfdef9c114}, !- Space Name
  Outdoors,                               !- Outside Boundary Condition
  ,                                       !- Outside Boundary Condition Object
  SunExposed,                             !- Sun Exposure
  WindExposed,                            !- Wind Exposure
  ,                                       !- View Factor to Ground
  ,                                       !- Number of Vertices
  1.77635683940025e-015, 11.129722368505, 3.048, !- X,Y,Z Vertex 1 {m}
  1.77635683940025e-015, 11.129722368505, 0, !- X,Y,Z Vertex 2 {m}
  1.77635683940025e-015, -2.66453525910038e-015, 0, !- X,Y,Z Vertex 3 {m}
  1.77635683940025e-015, -2.66453525910038e-015, 3.048; !- X,Y,Z Vertex 4 {m}

OS:Surface,
  {69f2214a-fff9-4131-bc1c-184cc8c9b75f}, !- Handle
  Surface 9,                              !- Name
  Wall,                                   !- Surface Type
  ,                                       !- Construction Name
  {5699b7cb-b37e-41dd-91f1-eecfdef9c114}, !- Space Name
  Outdoors,                               !- Outside Boundary Condition
  ,                                       !- Outside Boundary Condition Object
  SunExposed,                             !- Sun Exposure
  WindExposed,                            !- Wind Exposure
  ,                                       !- View Factor to Ground
  ,                                       !- Number of Vertices
  16.6945835527575, 11.129722368505, 3.048, !- X,Y,Z Vertex 1 {m}
  16.6945835527575, 11.129722368505, 0,   !- X,Y,Z Vertex 2 {m}
  1.77635683940025e-015, 11.129722368505, 0, !- X,Y,Z Vertex 3 {m}
  1.77635683940025e-015, 11.129722368505, 3.048; !- X,Y,Z Vertex 4 {m}

OS:Surface,
  {49cb33a7-88fe-4bad-824e-300657c00ae9}, !- Handle
  Surface 10,                             !- Name
  Wall,                                   !- Surface Type
  ,                                       !- Construction Name
  {5699b7cb-b37e-41dd-91f1-eecfdef9c114}, !- Space Name
  Outdoors,                               !- Outside Boundary Condition
  ,                                       !- Outside Boundary Condition Object
  SunExposed,                             !- Sun Exposure
  WindExposed,                            !- Wind Exposure
  ,                                       !- View Factor to Ground
  ,                                       !- Number of Vertices
  16.6945835527575, -2.66453525910038e-015, 3.048, !- X,Y,Z Vertex 1 {m}
  16.6945835527575, -2.66453525910038e-015, 0, !- X,Y,Z Vertex 2 {m}
  16.6945835527575, 11.129722368505, 0,   !- X,Y,Z Vertex 3 {m}
  16.6945835527575, 11.129722368505, 3.048; !- X,Y,Z Vertex 4 {m}

OS:Surface,
  {176c69b0-8199-4be8-b59e-36ce004d2e19}, !- Handle
  Surface 11,                             !- Name
  Wall,                                   !- Surface Type
  ,                                       !- Construction Name
  {5699b7cb-b37e-41dd-91f1-eecfdef9c114}, !- Space Name
  Outdoors,                               !- Outside Boundary Condition
  ,                                       !- Outside Boundary Condition Object
  SunExposed,                             !- Sun Exposure
  WindExposed,                            !- Wind Exposure
  ,                                       !- View Factor to Ground
  ,                                       !- Number of Vertices
  1.77635683940025e-015, -2.66453525910038e-015, 3.048, !- X,Y,Z Vertex 1 {m}
  1.77635683940025e-015, -2.66453525910038e-015, 0, !- X,Y,Z Vertex 2 {m}
  16.6945835527575, -2.66453525910038e-015, 0, !- X,Y,Z Vertex 3 {m}
  16.6945835527575, -2.66453525910038e-015, 3.048; !- X,Y,Z Vertex 4 {m}

OS:Surface,
  {6af4d5b6-105a-4f65-aff5-3924a5e27568}, !- Handle
  Surface 12,                             !- Name
  RoofCeiling,                            !- Surface Type
  ,                                       !- Construction Name
  {5699b7cb-b37e-41dd-91f1-eecfdef9c114}, !- Space Name
  Adiabatic,                              !- Outside Boundary Condition
  ,                                       !- Outside Boundary Condition Object
  NoSun,                                  !- Sun Exposure
  NoWind,                                 !- Wind Exposure
  ,                                       !- View Factor to Ground
  ,                                       !- Number of Vertices
  16.6945835527575, -2.66453525910038e-015, 3.048, !- X,Y,Z Vertex 1 {m}
  16.6945835527575, 11.129722368505, 3.048, !- X,Y,Z Vertex 2 {m}
  1.77635683940025e-015, 11.129722368505, 3.048, !- X,Y,Z Vertex 3 {m}
  1.77635683940025e-015, -2.66453525910038e-015, 3.048; !- X,Y,Z Vertex 4 {m}

OS:ThermalZone,
  {b34fdff9-a280-4e65-aab5-4425968f83f2}, !- Handle
  Zone Office WholeBuilding - Sm Office  - Story Mid, !- Name
  3,                                      !- Multiplier
  ,                                       !- Ceiling Height {m}
  ,                                       !- Volume {m3}
  ,                                       !- Floor Area {m2}
  ,                                       !- Zone Inside Convection Algorithm
  ,                                       !- Zone Outside Convection Algorithm
  ,                                       !- Zone Conditioning Equipment List Name
  {905aea55-0946-48e3-b200-7d6e2559685c}, !- Zone Air Inlet Port List
  {8fd5dc19-5770-4cf5-a781-9ea2a39adceb}, !- Zone Air Exhaust Port List
  {f87c1128-84b7-4557-98d0-7b579c8206d5}, !- Zone Air Node Name
  {ba0cb102-2c59-4641-a85c-0e9ccfab6de5}, !- Zone Return Air Port List
  ,                                       !- Primary Daylighting Control Name
  ,                                       !- Fraction of Zone Controlled by Primary Daylighting Control
  ,                                       !- Secondary Daylighting Control Name
  ,                                       !- Fraction of Zone Controlled by Secondary Daylighting Control
  ,                                       !- Illuminance Map Name
  ,                                       !- Group Rendering Name
  ,                                       !- Thermostat Name
  No;                                     !- Use Ideal Air Loads

OS:Node,
  {ad35be37-e93c-4be5-9d21-12c89eca2cbd}, !- Handle
  Node 2,                                 !- Name
  {f87c1128-84b7-4557-98d0-7b579c8206d5}, !- Inlet Port
  ;                                       !- Outlet Port

OS:Connection,
  {f87c1128-84b7-4557-98d0-7b579c8206d5}, !- Handle
  {74a14114-dda9-4e35-86b6-b59ef72f8180}, !- Name
  {b34fdff9-a280-4e65-aab5-4425968f83f2}, !- Source Object
  11,                                     !- Outlet Port
  {ad35be37-e93c-4be5-9d21-12c89eca2cbd}, !- Target Object
  2;                                      !- Inlet Port

OS:PortList,
  {905aea55-0946-48e3-b200-7d6e2559685c}, !- Handle
  {818bca5d-2f1f-43ed-a6e9-45678d67e0b7}, !- Name
  {b34fdff9-a280-4e65-aab5-4425968f83f2}; !- HVAC Component

OS:PortList,
  {8fd5dc19-5770-4cf5-a781-9ea2a39adceb}, !- Handle
  {0e883209-79ac-47f8-8264-7ba6ef895134}, !- Name
  {b34fdff9-a280-4e65-aab5-4425968f83f2}; !- HVAC Component

OS:PortList,
  {ba0cb102-2c59-4641-a85c-0e9ccfab6de5}, !- Handle
  {c89068fb-b53e-477a-b045-c7eb3d2e5793}, !- Name
  {b34fdff9-a280-4e65-aab5-4425968f83f2}; !- HVAC Component

OS:Sizing:Zone,
  {c5578f5e-8def-4d99-a601-27d6613eb93d}, !- Handle
  {b34fdff9-a280-4e65-aab5-4425968f83f2}, !- Zone or ZoneList Name
  SupplyAirTemperature,                   !- Zone Cooling Design Supply Air Temperature Input Method
  14,                                     !- Zone Cooling Design Supply Air Temperature {C}
  11.11,                                  !- Zone Cooling Design Supply Air Temperature Difference {deltaC}
  SupplyAirTemperature,                   !- Zone Heating Design Supply Air Temperature Input Method
  40,                                     !- Zone Heating Design Supply Air Temperature {C}
  11.11,                                  !- Zone Heating Design Supply Air Temperature Difference {deltaC}
  0.0085,                                 !- Zone Cooling Design Supply Air Humidity Ratio {kg-H2O/kg-air}
  0.008,                                  !- Zone Heating Design Supply Air Humidity Ratio {kg-H2O/kg-air}
  ,                                       !- Zone Heating Sizing Factor
  ,                                       !- Zone Cooling Sizing Factor
  DesignDay,                              !- Cooling Design Air Flow Method
  ,                                       !- Cooling Design Air Flow Rate {m3/s}
  ,                                       !- Cooling Minimum Air Flow per Zone Floor Area {m3/s-m2}
  ,                                       !- Cooling Minimum Air Flow {m3/s}
  ,                                       !- Cooling Minimum Air Flow Fraction
  DesignDay,                              !- Heating Design Air Flow Method
  ,                                       !- Heating Design Air Flow Rate {m3/s}
  ,                                       !- Heating Maximum Air Flow per Zone Floor Area {m3/s-m2}
  ,                                       !- Heating Maximum Air Flow {m3/s}
  ,                                       !- Heating Maximum Air Flow Fraction
  ,                                       !- Design Zone Air Distribution Effectiveness in Cooling Mode
  ,                                       !- Design Zone Air Distribution Effectiveness in Heating Mode
  No,                                     !- Account for Dedicated Outdoor Air System
  NeutralSupplyAir,                       !- Dedicated Outdoor Air System Control Strategy
  autosize,                               !- Dedicated Outdoor Air Low Setpoint Temperature for Design {C}
  autosize;                               !- Dedicated Outdoor Air High Setpoint Temperature for Design {C}

OS:ZoneHVAC:EquipmentList,
  {fa0b4a12-5c00-41c8-827c-2883a0aa7a2b}, !- Handle
  Zone HVAC Equipment List 2,             !- Name
  {b34fdff9-a280-4e65-aab5-4425968f83f2}; !- Thermal Zone

OS:BuildingStory,
  {4301ee66-8e22-4030-ba4d-c022a7291fb8}, !- Handle
  Story Top,                              !- Name
  12.192,                                 !- Nominal Z Coordinate {m}
  3.048,                                  !- Nominal Floor to Floor Height {m}
  ,                                       !- Default Construction Set Name
  ,                                       !- Default Schedule Set Name
  ;                                       !- Group Rendering Name

OS:Space,
  {e1b49c56-d193-4704-8a79-ca70a1cc0dbf}, !- Handle
  Office WholeBuilding - Sm Office  - Story Top, !- Name
  {9d3f7a84-cff7-4178-a330-51abb5faf2f6}, !- Space Type Name
  ,                                       !- Default Construction Set Name
  ,                                       !- Default Schedule Set Name
  -0,                                     !- Direction of Relative North {deg}
  -8.34729177637873,                      !- X Origin {m}
  -5.56486118425249,                      !- Y Origin {m}
  12.192,                                 !- Z Origin {m}
  {4301ee66-8e22-4030-ba4d-c022a7291fb8}, !- Building Story Name
  {69ee6757-9a1d-4834-8739-15dc782cbaf1}; !- Thermal Zone Name

OS:Surface,
  {75903bad-e816-4e74-aaa1-83c8b90acd05}, !- Handle
  Surface 13,                             !- Name
  Floor,                                  !- Surface Type
  ,                                       !- Construction Name
  {e1b49c56-d193-4704-8a79-ca70a1cc0dbf}, !- Space Name
  Adiabatic,                              !- Outside Boundary Condition
  ,                                       !- Outside Boundary Condition Object
  NoSun,                                  !- Sun Exposure
  NoWind,                                 !- Wind Exposure
  ,                                       !- View Factor to Ground
  ,                                       !- Number of Vertices
  1.77635683940025e-015, -2.66453525910038e-015, 0, !- X,Y,Z Vertex 1 {m}
  1.77635683940025e-015, 11.129722368505, 0, !- X,Y,Z Vertex 2 {m}
  16.6945835527575, 11.129722368505, 0,   !- X,Y,Z Vertex 3 {m}
  16.6945835527575, -2.66453525910038e-015, 0; !- X,Y,Z Vertex 4 {m}

OS:Surface,
  {7006f395-08e2-4b75-a283-c5198cba3238}, !- Handle
  Surface 14,                             !- Name
  Wall,                                   !- Surface Type
  ,                                       !- Construction Name
  {e1b49c56-d193-4704-8a79-ca70a1cc0dbf}, !- Space Name
  Outdoors,                               !- Outside Boundary Condition
  ,                                       !- Outside Boundary Condition Object
  SunExposed,                             !- Sun Exposure
  WindExposed,                            !- Wind Exposure
  ,                                       !- View Factor to Ground
  ,                                       !- Number of Vertices
  1.77635683940025e-015, 11.129722368505, 3.048, !- X,Y,Z Vertex 1 {m}
  1.77635683940025e-015, 11.129722368505, 0, !- X,Y,Z Vertex 2 {m}
  1.77635683940025e-015, -2.66453525910038e-015, 0, !- X,Y,Z Vertex 3 {m}
  1.77635683940025e-015, -2.66453525910038e-015, 3.048; !- X,Y,Z Vertex 4 {m}

OS:Surface,
  {95c8f21f-c435-4c02-a53d-9e672ab3525d}, !- Handle
  Surface 15,                             !- Name