
OS:Version,
  {09b77f49-751c-4236-b90e-0b5124e16e20}, !- Handle
  2.7.2;                                  !- Version Identifier

OS:SpaceType,
  {7706085a-751d-45d7-907d-b54c0212c30b}, !- Handle
  Office WholeBuilding - Sm Office,       !- Name
  ,                                       !- Default Construction Set Name
  ,                                       !- Default Schedule Set Name
  {ccefbbd1-29a0-424d-ab98-66d8a800823b}, !- Group Rendering Name
  ,                                       !- Design Specification Outdoor Air Object Name
  ,                                       !- Standards Template
  Office,                                 !- Standards Building Type
  WholeBuilding - Sm Office;              !- Standards Space Type

OS:Rendering:Color,
  {ccefbbd1-29a0-424d-ab98-66d8a800823b}, !- Handle
  Office WholeBuilding - Sm Office,       !- Name
  120,                                    !- Rendering Red Value
  230,                                    !- Rendering Green Value
  199;                                    !- Rendering Blue Value

OS:Building,
  {2e0ced73-ae51-4257-97b3-1d5d7c57f601}, !- Handle
  90.1-2004|SmallOffice,                  !- Name
  ,                                       !- Building Sector Type
  ,                                       !- North Axis {deg}
  ,                                       !- Nominal Floor to Floor Height {m}
  ,                                       !- Space Type Name
  ,                                       !- Default Construction Set Name
  ;                                       !- Default Schedule Set Name

OS:Site,
  {43cf6809-882e-43b4-bce9-82decf7fc2b3}, !- Handle
  Site 1,                                 !- Name
  ,                                       !- Latitude {deg}
  ,                                       !- Longitude {deg}
  ,                                       !- Time Zone {hr}
  ,                                       !- Elevation {m}
  ;                                       !- Terrain

OS:BuildingStory,
  {c2e0fdb0-13ee-419e-8bf4-376c7f7b7d3a}, !- Handle
  Story Ground,                           !- Name
  0,                                      !- Nominal Z Coordinate {m}
  3.048,                                  !- Nominal Floor to Floor Height {m}
  ,                                       !- Default Construction Set Name
  ,                                       !- Default Schedule Set Name
  ;                                       !- Group Rendering Name

OS:Space,
  {dfd2be55-8ef5-4da9-acd3-4eb98048e9f2}, !- Handle
  Office WholeBuilding - Sm Office  - Story Ground, !- Name
  {7706085a-751d-45d7-907d-b54c0212c30b}, !- Space Type Name
  ,                                       !- Default Construction Set Name
  ,                                       !- Default Schedule Set Name
  -0,                                     !- Direction of Relative North {deg}
  -8.34729177637873,                      !- X Origin {m}
  -5.56486118425249,                      !- Y Origin {m}
  0,                                      !- Z Origin {m}
  {c2e0fdb0-13ee-419e-8bf4-376c7f7b7d3a}, !- Building Story Name
  {9b776eeb-e011-4db2-aac8-60ea2cc1e01f}; !- Thermal Zone Name

OS:Surface,
  {52eb326c-2921-400f-84c4-4baf027a6b6c}, !- Handle
  Surface 1,                              !- Name
  Floor,                                  !- Surface Type
  ,                                       !- Construction Name
  {dfd2be55-8ef5-4da9-acd3-4eb98048e9f2}, !- Space Name
  Ground,                                 !- Outside Boundary Condition
  ,                                       !- Outside Boundary Condition Object
  NoSun,                                  !- Sun Exposure
  NoWind,                                 !- Wind Exposure
  ,                                       !- View Factor to Ground
  ,                                       !- Number of Vertices
  1.77635683940025e-015, -2.66453525910038e-015, 0, !- X,Y,Z Vertex 1 {m}
  1.77635683940025e-015, 11.129722368505, 0, !- X,Y,Z Vertex 2 {m}
  16.6945835527575, 11.129722368505, 0,   !- X,Y,Z Vertex 3 {m}
  16.6945835527575, -2.66453525910038e-015, 0; !- X,Y,Z Vertex 4 {m}

OS:Surface,
  {a5e50cf3-b144-4a29-9465-587cd1a2c604}, !- Handle
  Surface 2,                              !- Name
  Wall,                                   !- Surface Type
  ,                                       !- Construction Name
  {dfd2be55-8ef5-4da9-acd3-4eb98048e9f2}, !- Space Name
  Outdoors,                               !- Outside Boundary Condition
  ,                                       !- Outside Boundary Condition Object
  SunExposed,                             !- Sun Exposure
  WindExposed,                            !- Wind Exposure
  ,                                       !- View Factor to Ground
  ,                                       !- Number of Vertices
  1.77635683940025e-015, 11.129722368505, 3.048, !- X,Y,Z Vertex 1 {m}
  1.77635683940025e-015, 11.129722368505, 0, !- X,Y,Z Vertex 2 {m}
  1.77635683940025e-015, -2.66453525910038e-015, 0, !- X,Y,Z Vertex 3 {m}
  1.77635683940025e-015, -2.66453525910038e-015, 3.048; !- X,Y,Z Vertex 4 {m}

OS:Surface,
  {b2f75f90-d145-445e-8b9e-7fe77b78e805}, !- Handle
  Surface 3,                              !- Name
  Wall,                                   !- Surface Type
  ,                                       !- Construction Name
  {dfd2be55-8ef5-4da9-acd3-4eb98048e9f2}, !- Space Name
  Outdoors,                               !- Outside Boundary Condition
  ,                                       !- Outside Boundary Condition Object
  SunExposed,                             !- Sun Exposure
  WindExposed,                            !- Wind Exposure
  ,                                       !- View Factor to Ground
  ,                                       !- Number of Vertices
  16.6945835527575, 11.129722368505, 3.048, !- X,Y,Z Vertex 1 {m}
  16.6945835527575, 11.129722368505, 0,   !- X,Y,Z Vertex 2 {m}
  1.77635683940025e-015, 11.129722368505, 0, !- X,Y,Z Vertex 3 {m}
  1.77635683940025e-015, 11.129722368505, 3.048; !- X,Y,Z Vertex 4 {m}

OS:Surface,
  {fd61583b-ad61-4919-897d-bb9e5e5f48f6}, !- Handle
  Surface 4,                              !- Name
  Wall,                                   !- Surface Type
  ,                                       !- Construction Name
  {dfd2be55-8ef5-4da9-acd3-4eb98048e9f2}, !- Space Name
  Outdoors,                               !- Outside Boundary Condition
  ,                                       !- Outside Boundary Condition Object
  SunExposed,                             !- Sun Exposure
  WindExposed,                            !- Wind Exposure
  ,                                       !- View Factor to Ground
  ,                                       !- Number of Vertices
  16.6945835527575, -2.66453525910038e-015, 3.048, !- X,Y,Z Vertex 1 {m}
  16.6945835527575, -2.66453525910038e-015, 0, !- X,Y,Z Vertex 2 {m}
  16.6945835527575, 11.129722368505, 0,   !- X,Y,Z Vertex 3 {m}
  16.6945835527575, 11.129722368505, 3.048; !- X,Y,Z Vertex 4 {m}

OS:Surface,
  {aa3657d1-1e13-477d-802e-b5d2aac48815}, !- Handle
  Surface 5,                              !- Name
  Wall,                                   !- Surface Type
  ,                                       !- Construction Name
  {dfd2be55-8ef5-4da9-acd3-4eb98048e9f2}, !- Space Name
  Outdoors,                               !- Outside Boundary Condition
  ,                                       !- Outside Boundary Condition Object
  SunExposed,                             !- Sun Exposure
  WindExposed,                            !- Wind Exposure
  ,                                       !- View Factor to Ground
  ,                                       !- Number of Vertices
  1.77635683940025e-015, -2.66453525910038e-015, 3.048, !- X,Y,Z Vertex 1 {m}
  1.77635683940025e-015, -2.66453525910038e-015, 0, !- X,Y,Z Vertex 2 {m}
  16.6945835527575, -2.66453525910038e-015, 0, !- X,Y,Z Vertex 3 {m}
  16.6945835527575, -2.66453525910038e-015, 3.048; !- X,Y,Z Vertex 4 {m}

OS:Surface,
  {2cd003bc-99ce-47b6-9e11-1f5e258ef676}, !- Handle
  Surface 6,                              !- Name
  RoofCeiling,                            !- Surface Type
  ,                                       !- Construction Name
  {dfd2be55-8ef5-4da9-acd3-4eb98048e9f2}, !- Space Name
  Adiabatic,                              !- Outside Boundary Condition
  ,                                       !- Outside Boundary Condition Object
  NoSun,                                  !- Sun Exposure
  NoWind,                                 !- Wind Exposure
  ,                                       !- View Factor to Ground
  ,                                       !- Number of Vertices
  16.6945835527575, -2.66453525910038e-015, 3.048, !- X,Y,Z Vertex 1 {m}
  16.6945835527575, 11.129722368505, 3.048, !- X,Y,Z Vertex 2 {m}
  1.77635683940025e-015, 11.129722368505, 3.048, !- X,Y,Z Vertex 3 {m}
  1.77635683940025e-015, -2.66453525910038e-015, 3.048; !- X,Y,Z Vertex 4 {m}

OS:ThermalZone,
  {9b776eeb-e011-4db2-aac8-60ea2cc1e01f}, !- Handle
  Zone Office WholeBuilding - Sm Office  - Story Ground, !- Name
  1,                                      !- Multiplier
  ,                                       !- Ceiling Height {m}
  ,                                       !- Volume {m3}
  ,                                       !- Floor Area {m2}
  ,                                       !- Zone Inside Convection Algorithm
  ,                                       !- Zone Outside Convection Algorithm
  ,                                       !- Zone Conditioning Equipment List Name
  {462de4d8-bf39-48c4-90ca-cb8c04b43c3a}, !- Zone Air Inlet Port List
  {3c0e6331-e465-43ec-a065-f355c4234898}, !- Zone Air Exhaust Port List
  {7db15c67-d289-4e08-9513-f91854f199f4}, !- Zone Air Node Name
  {99d6bae1-ede0-4e62-ad7a-c925c6f83250}, !- Zone Return Air Port List
  ,                                       !- Primary Daylighting Control Name
  ,                                       !- Fraction of Zone Controlled by Primary Daylighting Control
  ,                                       !- Secondary Daylighting Control Name
  ,                                       !- Fraction of Zone Controlled by Secondary Daylighting Control
  ,                                       !- Illuminance Map Name
  ,                                       !- Group Rendering Name
  ,                                       !- Thermostat Name
  No;                                     !- Use Ideal Air Loads

OS:Node,
  {a6c625d4-3187-4da1-aa7c-7abcee95799b}, !- Handle
  Node 1,                                 !- Name
  {7db15c67-d289-4e08-9513-f91854f199f4}, !- Inlet Port
  ;                                       !- Outlet Port

OS:Connection,
  {7db15c67-d289-4e08-9513-f91854f199f4}, !- Handle
  {a9317998-ed51-4a0c-927d-aa2fe8af255b}, !- Name
  {9b776eeb-e011-4db2-aac8-60ea2cc1e01f}, !- Source Object
  11,                                     !- Outlet Port
  {a6c625d4-3187-4da1-aa7c-7abcee95799b}, !- Target Object
  2;                                      !- Inlet Port

OS:PortList,
  {462de4d8-bf39-48c4-90ca-cb8c04b43c3a}, !- Handle
  {823cae05-c566-4868-b9b8-88855063532a}, !- Name
  {9b776eeb-e011-4db2-aac8-60ea2cc1e01f}; !- HVAC Component

OS:PortList,
  {3c0e6331-e465-43ec-a065-f355c4234898}, !- Handle
  {8e46d6c1-5015-4147-bff0-fddc2c88f5b9}, !- Name
  {9b776eeb-e011-4db2-aac8-60ea2cc1e01f}; !- HVAC Component

OS:PortList,
  {99d6bae1-ede0-4e62-ad7a-c925c6f83250}, !- Handle
  {ac3990ca-470c-4885-b84d-9c27139184b8}, !- Name
  {9b776eeb-e011-4db2-aac8-60ea2cc1e01f}; !- HVAC Component

OS:Sizing:Zone,
  {48478daf-fb78-4268-97aa-4a600bb8492a}, !- Handle
  {9b776eeb-e011-4db2-aac8-60ea2cc1e01f}, !- Zone or ZoneList Name
  SupplyAirTemperature,                   !- Zone Cooling Design Supply Air Temperature Input Method
  14,                                     !- Zone Cooling Design Supply Air Temperature {C}
  11.11,                                  !- Zone Cooling Design Supply Air Temperature Difference {deltaC}
  SupplyAirTemperature,                   !- Zone Heating Design Supply Air Temperature Input Method
  40,                                     !- Zone Heating Design Supply Air Temperature {C}
  11.11,                                  !- Zone Heating Design Supply Air Temperature Difference {deltaC}
  0.0085,                                 !- Zone Cooling Design Supply Air Humidity Ratio {kg-H2O/kg-air}
  0.008,                                  !- Zone Heating Design Supply Air Humidity Ratio {kg-H2O/kg-air}
  ,                                       !- Zone Heating Sizing Factor
  ,                                       !- Zone Cooling Sizing Factor
  DesignDay,                              !- Cooling Design Air Flow Method
  ,                                       !- Cooling Design Air Flow Rate {m3/s}
  ,                                       !- Cooling Minimum Air Flow per Zone Floor Area {m3/s-m2}
  ,                                       !- Cooling Minimum Air Flow {m3/s}
  ,                                       !- Cooling Minimum Air Flow Fraction
  DesignDay,                              !- Heating Design Air Flow Method
  ,                                       !- Heating Design Air Flow Rate {m3/s}
  ,                                       !- Heating Maximum Air Flow per Zone Floor Area {m3/s-m2}
  ,                                       !- Heating Maximum Air Flow {m3/s}
  ,                                       !- Heating Maximum Air Flow Fraction
  ,                                       !- Design Zone Air Distribution Effectiveness in Cooling Mode
  ,                                       !- Design Zone Air Distribution Effectiveness in Heating Mode
  No,                                     !- Account for Dedicated Outdoor Air System
  NeutralSupplyAir,                       !- Dedicated Outdoor Air System Control Strategy
  autosize,                               !- Dedicated Outdoor Air Low Setpoint Temperature for Design {C}
  autosize;                               !- Dedicated Outdoor Air High Setpoint Temperature for Design {C}

OS:ZoneHVAC:EquipmentList,
  {bc5bb975-f886-458b-ac12-ea8f44b0c4bb}, !- Handle
  Zone HVAC Equipment List 1,             !- Name
  {9b776eeb-e011-4db2-aac8-60ea2cc1e01f}; !- Thermal Zone

OS:BuildingStory,
  {20f548c3-e43a-4e05-a27e-f400f7b6e712}, !- Handle
  Story Mid,                              !- Name
  6.096,                                  !- Nominal Z Coordinate {m}
  3.048,                                  !- Nominal Floor to Floor Height {m}
  ,                                       !- Default Construction Set Name
  ,                                       !- Default Schedule Set Name
  ;                                       !- Group Rendering Name

OS:Space,
  {77794c17-e7aa-4317-84d2-ed5318c6e68e}, !- Handle
  Office WholeBuilding - Sm Office  - Story Mid, !- Name
  {7706085a-751d-45d7-907d-b54c0212c30b}, !- Space Type Name
  ,                                       !- Default Construction Set Name
  ,                                       !- Default Schedule Set Name
  -0,                                     !- Direction of Relative North {deg}
  -8.34729177637873,                      !- X Origin {m}
  -5.56486118425249,                      !- Y Origin {m}
  6.096,                                  !- Z Origin {m}
  {20f548c3-e43a-4e05-a27e-f400f7b6e712}, !- Building Story Name
  {187a0eb3-6045-42ec-b696-f58b306f57bb}; !- Thermal Zone Name

OS:Surface,
  {837ea73d-f7ee-49d3-8044-c7d13c1b5529}, !- Handle
  Surface 7,                              !- Name
  Floor,                                  !- Surface Type
  ,                                       !- Construction Name
  {77794c17-e7aa-4317-84d2-ed5318c6e68e}, !- Space Name
  Adiabatic,                              !- Outside Boundary Condition
  ,                                       !- Outside Boundary Condition Object
  NoSun,                                  !- Sun Exposure
  NoWind,                                 !- Wind Exposure
  ,                                       !- View Factor to Ground
  ,                                       !- Number of Vertices
  1.77635683940025e-015, -2.66453525910038e-015, 0, !- X,Y,Z Vertex 1 {m}
  1.77635683940025e-015, 11.129722368505, 0, !- X,Y,Z Vertex 2 {m}
  16.6945835527575, 11.129722368505, 0,   !- X,Y,Z Vertex 3 {m}
  16.6945835527575, -2.66453525910038e-015, 0; !- X,Y,Z Vertex 4 {m}

OS:Surface,
  {98f34828-cc2b-4a05-9dca-01ef0f425f98}, !- Handle
  Surface 8,                              !- Name
  Wall,                                   !- Surface Type
  ,                                       !- Construction Name
  {77794c17-e7aa-4317-84d2-ed5318c6e68e}, !- Space Name
  Outdoors,                               !- Outside Boundary Condition
  ,                                       !- Outside Boundary Condition Object
  SunExposed,                             !- Sun Exposure
  WindExposed,                            !- Wind Exposure
  ,                                       !- View Factor to Ground
  ,                                       !- Number of Vertices
  1.77635683940025e-015, 11.129722368505, 3.048, !- X,Y,Z Vertex 1 {m}
  1.77635683940025e-015, 11.129722368505, 0, !- X,Y,Z Vertex 2 {m}
  1.77635683940025e-015, -2.66453525910038e-015, 0, !- X,Y,Z Vertex 3 {m}
  1.77635683940025e-015, -2.66453525910038e-015, 3.048; !- X,Y,Z Vertex 4 {m}

OS:Surface,
  {cc76fd32-263b-44eb-b959-56774b6dfcfd}, !- Handle
  Surface 9,                              !- Name
  Wall,                                   !- Surface Type
  ,                                       !- Construction Name
  {77794c17-e7aa-4317-84d2-ed5318c6e68e}, !- Space Name
  Outdoors,                               !- Outside Boundary Condition
  ,                                       !- Outside Boundary Condition Object
  SunExposed,                             !- Sun Exposure
  WindExposed,                            !- Wind Exposure
  ,                                       !- View Factor to Ground
  ,                                       !- Number of Vertices
  16.6945835527575, 11.129722368505, 3.048, !- X,Y,Z Vertex 1 {m}
  16.6945835527575, 11.129722368505, 0,   !- X,Y,Z Vertex 2 {m}
  1.77635683940025e-015, 11.129722368505, 0, !- X,Y,Z Vertex 3 {m}
  1.77635683940025e-015, 11.129722368505, 3.048; !- X,Y,Z Vertex 4 {m}

OS:Surface,
  {de7e419d-58a7-4e63-9c47-396067d545ce}, !- Handle
  Surface 10,                             !- Name
  Wall,                                   !- Surface Type
  ,                                       !- Construction Name
  {77794c17-e7aa-4317-84d2-ed5318c6e68e}, !- Space Name
  Outdoors,                               !- Outside Boundary Condition
  ,                                       !- Outside Boundary Condition Object
  SunExposed,                             !- Sun Exposure
  WindExposed,                            !- Wind Exposure
  ,                                       !- View Factor to Ground
  ,                                       !- Number of Vertices
  16.6945835527575, -2.66453525910038e-015, 3.048, !- X,Y,Z Vertex 1 {m}
  16.6945835527575, -2.66453525910038e-015, 0, !- X,Y,Z Vertex 2 {m}
  16.6945835527575, 11.129722368505, 0,   !- X,Y,Z Vertex 3 {m}
  16.6945835527575, 11.129722368505, 3.048; !- X,Y,Z Vertex 4 {m}

OS:Surface,
  {6bb739c4-3ae5-4e47-bec6-0ad2e2644634}, !- Handle
  Surface 11,                             !- Name
  Wall,                                   !- Surface Type
  ,                                       !- Construction Name
  {77794c17-e7aa-4317-84d2-ed5318c6e68e}, !- Space Name
  Outdoors,                               !- Outside Boundary Condition
  ,                                       !- Outside Boundary Condition Object
  SunExposed,                             !- Sun Exposure
  WindExposed,                            !- Wind Exposure
  ,                                       !- View Factor to Ground
  ,                                       !- Number of Vertices
  1.77635683940025e-015, -2.66453525910038e-015, 3.048, !- X,Y,Z Vertex 1 {m}
  1.77635683940025e-015, -2.66453525910038e-015, 0, !- X,Y,Z Vertex 2 {m}
  16.6945835527575, -2.66453525910038e-015, 0, !- X,Y,Z Vertex 3 {m}
  16.6945835527575, -2.66453525910038e-015, 3.048; !- X,Y,Z Vertex 4 {m}

OS:Surface,
  {02f5c6f2-32b8-4781-ac21-42a954424904}, !- Handle
  Surface 12,                             !- Name
  RoofCeiling,                            !- Surface Type
  ,                                       !- Construction Name
  {77794c17-e7aa-4317-84d2-ed5318c6e68e}, !- Space Name
  Adiabatic,                              !- Outside Boundary Condition
  ,                                       !- Outside Boundary Condition Object
  NoSun,                                  !- Sun Exposure
  NoWind,                                 !- Wind Exposure
  ,                                       !- View Factor to Ground
  ,                                       !- Number of Vertices
  16.6945835527575, -2.66453525910038e-015, 3.048, !- X,Y,Z Vertex 1 {m}
  16.6945835527575, 11.129722368505, 3.048, !- X,Y,Z Vertex 2 {m}
  1.77635683940025e-015, 11.129722368505, 3.048, !- X,Y,Z Vertex 3 {m}
  1.77635683940025e-015, -2.66453525910038e-015, 3.048; !- X,Y,Z Vertex 4 {m}

OS:ThermalZone,
  {187a0eb3-6045-42ec-b696-f58b306f57bb}, !- Handle
  Zone Office WholeBuilding - Sm Office  - Story Mid, !- Name
  3,                                      !- Multiplier
  ,                                       !- Ceiling Height {m}
  ,                                       !- Volume {m3}
  ,                                       !- Floor Area {m2}
  ,                                       !- Zone Inside Convection Algorithm
  ,                                       !- Zone Outside Convection Algorithm
  ,                                       !- Zone Conditioning Equipment List Name
  {2b89b2d0-b444-4ff7-89c6-43cd4d478e1b}, !- Zone Air Inlet Port List
  {ff1bf72c-9e8f-4948-99e5-2aee1f9dd63c}, !- Zone Air Exhaust Port List
  {681da311-c837-44bb-b3bc-e460da5c9dea}, !- Zone Air Node Name
  {29da2b8c-422d-44c7-aaf9-ff95d62c442a}, !- Zone Return Air Port List
  ,                                       !- Primary Daylighting Control Name
  ,                                       !- Fraction of Zone Controlled by Primary Daylighting Control
  ,                                       !- Secondary Daylighting Control Name
  ,                                       !- Fraction of Zone Controlled by Secondary Daylighting Control
  ,                                       !- Illuminance Map Name
  ,                                       !- Group Rendering Name
  ,                                       !- Thermostat Name
  No;                                     !- Use Ideal Air Loads

OS:Node,
  {1732581c-520c-4ce2-b2e5-c2097bc56463}, !- Handle
  Node 2,                                 !- Name
  {681da311-c837-44bb-b3bc-e460da5c9dea}, !- Inlet Port
  ;                                       !- Outlet Port

OS:Connection,
  {681da311-c837-44bb-b3bc-e460da5c9dea}, !- Handle
  {f23575f3-350e-4004-81d3-a7887a082d98}, !- Name
  {187a0eb3-6045-42ec-b696-f58b306f57bb}, !- Source Object
  11,                                     !- Outlet Port
  {1732581c-520c-4ce2-b2e5-c2097bc56463}, !- Target Object
  2;                                      !- Inlet Port

OS:PortList,
  {2b89b2d0-b444-4ff7-89c6-43cd4d478e1b}, !- Handle
  {b4849052-26f6-4acc-8a54-5ddcc53a377c}, !- Name
  {187a0eb3-6045-42ec-b696-f58b306f57bb}; !- HVAC Component

OS:PortList,
  {ff1bf72c-9e8f-4948-99e5-2aee1f9dd63c}, !- Handle
  {cb4f7df5-13d3-4ef7-b8aa-36f277ba0570}, !- Name
  {187a0eb3-6045-42ec-b696-f58b306f57bb}; !- HVAC Component

OS:PortList,
  {29da2b8c-422d-44c7-aaf9-ff95d62c442a}, !- Handle
  {72a41a7c-0909-4552-bf55-221d8210195e}, !- Name
  {187a0eb3-6045-42ec-b696-f58b306f57bb}; !- HVAC Component

OS:Sizing:Zone,
  {31c01df4-6dd5-45bf-97e0-a17145cbe575}, !- Handle
  {187a0eb3-6045-42ec-b696-f58b306f57bb}, !- Zone or ZoneList Name
  SupplyAirTemperature,                   !- Zone Cooling Design Supply Air Temperature Input Method
  14,                                     !- Zone Cooling Design Supply Air Temperature {C}
  11.11,                                  !- Zone Cooling Design Supply Air Temperature Difference {deltaC}
  SupplyAirTemperature,                   !- Zone Heating Design Supply Air Temperature Input Method
  40,                                     !- Zone Heating Design Supply Air Temperature {C}
  11.11,                                  !- Zone Heating Design Supply Air Temperature Difference {deltaC}
  0.0085,                                 !- Zone Cooling Design Supply Air Humidity Ratio {kg-H2O/kg-air}
  0.008,                                  !- Zone Heating Design Supply Air Humidity Ratio {kg-H2O/kg-air}
  ,                                       !- Zone Heating Sizing Factor
  ,                                       !- Zone Cooling Sizing Factor
  DesignDay,                              !- Cooling Design Air Flow Method
  ,                                       !- Cooling Design Air Flow Rate {m3/s}
  ,                                       !- Cooling Minimum Air Flow per Zone Floor Area {m3/s-m2}
  ,                                       !- Cooling Minimum Air Flow {m3/s}
  ,                                       !- Cooling Minimum Air Flow Fraction
  DesignDay,                              !- Heating Design Air Flow Method
  ,                                       !- Heating Design Air Flow Rate {m3/s}
  ,                                       !- Heating Maximum Air Flow per Zone Floor Area {m3/s-m2}
  ,                                       !- Heating Maximum Air Flow {m3/s}
  ,                                       !- Heating Maximum Air Flow Fraction
  ,                                       !- Design Zone Air Distribution Effectiveness in Cooling Mode
  ,                                       !- Design Zone Air Distribution Effectiveness in Heating Mode
  No,                                     !- Account for Dedicated Outdoor Air System
  NeutralSupplyAir,                       !- Dedicated Outdoor Air System Control Strategy
  autosize,                               !- Dedicated Outdoor Air Low Setpoint Temperature for Design {C}
  autosize;                               !- Dedicated Outdoor Air High Setpoint Temperature for Design {C}

OS:ZoneHVAC:EquipmentList,
  {a0dbd32f-abb4-4837-952f-18123c02abcf}, !- Handle
  Zone HVAC Equipment List 2,             !- Name
  {187a0eb3-6045-42ec-b696-f58b306f57bb}; !- Thermal Zone

OS:BuildingStory,
  {d41b4435-8ade-4233-b7b8-1c41f9ebd75e}, !- Handle
  Story Top,                              !- Name
  12.192,                                 !- Nominal Z Coordinate {m}
  3.048,                                  !- Nominal Floor to Floor Height {m}
  ,                                       !- Default Construction Set Name
  ,                                       !- Default Schedule Set Name
  ;                                       !- Group Rendering Name

OS:Space,
  {c9b57291-bcf3-4b4b-9e74-0382639473c0}, !- Handle
  Office WholeBuilding - Sm Office  - Story Top, !- Name
  {7706085a-751d-45d7-907d-b54c0212c30b}, !- Space Type Name
  ,                                       !- Default Construction Set Name
  ,                                       !- Default Schedule Set Name
  -0,                                     !- Direction of Relative North {deg}
  -8.34729177637873,                      !- X Origin {m}
  -5.56486118425249,                      !- Y Origin {m}
  12.192,                                 !- Z Origin {m}
  {d41b4435-8ade-4233-b7b8-1c41f9ebd75e}, !- Building Story Name
  {d7dcd091-9058-4696-98e0-e1ac40709e15}; !- Thermal Zone Name

OS:Surface,
  {3101235b-9378-4cfc-83da-1218256e6176}, !- Handle
  Surface 13,                             !- Name
  Floor,                                  !- Surface Type
  ,                                       !- Construction Name
  {c9b57291-bcf3-4b4b-9e74-0382639473c0}, !- Space Name
  Adiabatic,                              !- Outside Boundary Condition
  ,                                       !- Outside Boundary Condition Object
  NoSun,                                  !- Sun Exposure
  NoWind,                                 !- Wind Exposure
  ,                                       !- View Factor to Ground
  ,                                       !- Number of Vertices
  1.77635683940025e-015, -2.66453525910038e-015, 0, !- X,Y,Z Vertex 1 {m}
  1.77635683940025e-015, 11.129722368505, 0, !- X,Y,Z Vertex 2 {m}
  16.6945835527575, 11.129722368505, 0,   !- X,Y,Z Vertex 3 {m}
  16.6945835527575, -2.66453525910038e-015, 0; !- X,Y,Z Vertex 4 {m}

OS:Surface,
  {674eef61-6271-4405-9b44-83fbcd572888}, !- Handle
  Surface 14,                             !- Name
  Wall,                                   !- Surface Type
  ,                                       !- Construction Name
  {c9b57291-bcf3-4b4b-9e74-0382639473c0}, !- Space Name
  Outdoors,                               !- Outside Boundary Condition
  ,                                       !- Outside Boundary Condition Object
  SunExposed,                             !- Sun Exposure
  WindExposed,                            !- Wind Exposure
  ,                                       !- View Factor to Ground
  ,                                       !- Number of Vertices
  1.77635683940025e-015, 11.129722368505, 3.048, !- X,Y,Z Vertex 1 {m}
  1.77635683940025e-015, 11.129722368505, 0, !- X,Y,Z Vertex 2 {m}
  1.77635683940025e-015, -2.66453525910038e-015, 0, !- X,Y,Z Vertex 3 {m}
  1.77635683940025e-015, -2.66453525910038e-015, 3.048; !- X,Y,Z Vertex 4 {m}

OS:Surface,
  {a44d738a-132b-40d7-87f1-d7aa079d4223}, !- Handle
  Surface 15,                             !- Name