
OS:Version,
  {006b3afc-2dae-4616-84e6-cb6749fdedec}, !- Handle
  2.7.2;                                  !- Version Identifier

OS:SpaceType,
  {70688c8a-f5ad-4c99-aba2-cce93df2cb83}, !- Handle
  Office WholeBuilding - Sm Office,       !- Name
  ,                                       !- Default Construction Set Name
  ,                                       !- Default Schedule Set Name
  {c620f447-8700-47cb-9f82-d68d85933af7}, !- Group Rendering Name
  ,                                       !- Design Specification Outdoor Air Object Name
  ,                                       !- Standards Template
  Office,                                 !- Standards Building Type
  WholeBuilding - Sm Office;              !- Standards Space Type

OS:Rendering:Color,
  {c620f447-8700-47cb-9f82-d68d85933af7}, !- Handle
  Office WholeBuilding - Sm Office,       !- Name
  120,                                    !- Rendering Red Value
  230,                                    !- Rendering Green Value
  199;                                    !- Rendering Blue Value

OS:Building,
  {c837f182-dd83-4bee-86b6-280db0a837c9}, !- Handle
  90.1-2004|SmallOffice,                  !- Name
  ,                                       !- Building Sector Type
  ,                                       !- North Axis {deg}
  ,                                       !- Nominal Floor to Floor Height {m}
  ,                                       !- Space Type Name
  ,                                       !- Default Construction Set Name
  ;                                       !- Default Schedule Set Name

OS:Site,
  {cb885f36-ac96-47c8-ac15-584584026aa4}, !- Handle
  Site 1,                                 !- Name
  ,                                       !- Latitude {deg}
  ,                                       !- Longitude {deg}
  ,                                       !- Time Zone {hr}
  ,                                       !- Elevation {m}
  ;                                       !- Terrain

OS:BuildingStory,
  {2dfb4964-933c-4bc5-9a64-8d239e419c25}, !- Handle
  Story Ground,                           !- Name
  0,                                      !- Nominal Z Coordinate {m}
  3.048,                                  !- Nominal Floor to Floor Height {m}
  ,                                       !- Default Construction Set Name
  ,                                       !- Default Schedule Set Name
  ;                                       !- Group Rendering Name

OS:Space,
  {1cb50f7e-25ea-4ec3-887b-8f79ae1acd02}, !- Handle
  Office WholeBuilding - Sm Office  - Story Ground, !- Name
  {70688c8a-f5ad-4c99-aba2-cce93df2cb83}, !- Space Type Name
  ,                                       !- Default Construction Set Name
  ,                                       !- Default Schedule Set Name
  -0,                                     !- Direction of Relative North {deg}
  -8.34729177637873,                      !- X Origin {m}
  -5.56486118425249,                      !- Y Origin {m}
  0,                                      !- Z Origin {m}
  {2dfb4964-933c-4bc5-9a64-8d239e419c25}, !- Building Story Name
  {ae2486d3-4d37-4585-9a39-91ede6e75025}; !- Thermal Zone Name

OS:Surface,
  {17561a85-3628-4fca-995d-09f1d4f53a96}, !- Handle
  Surface 1,                              !- Name
  Floor,                                  !- Surface Type
  ,                                       !- Construction Name
  {1cb50f7e-25ea-4ec3-887b-8f79ae1acd02}, !- Space Name
  Ground,                                 !- Outside Boundary Condition
  ,                                       !- Outside Boundary Condition Object
  NoSun,                                  !- Sun Exposure
  NoWind,                                 !- Wind Exposure
  ,                                       !- View Factor to Ground
  ,                                       !- Number of Vertices
  1.77635683940025e-015, -2.66453525910038e-015, 0, !- X,Y,Z Vertex 1 {m}
  1.77635683940025e-015, 11.129722368505, 0, !- X,Y,Z Vertex 2 {m}
  16.6945835527575, 11.129722368505, 0,   !- X,Y,Z Vertex 3 {m}
  16.6945835527575, -2.66453525910038e-015, 0; !- X,Y,Z Vertex 4 {m}

OS:Surface,
  {5d41a628-d381-4c1b-959c-59c8a486184e}, !- Handle
  Surface 2,                              !- Name
  Wall,                                   !- Surface Type
  ,                                       !- Construction Name
  {1cb50f7e-25ea-4ec3-887b-8f79ae1acd02}, !- Space Name
  Outdoors,                               !- Outside Boundary Condition
  ,                                       !- Outside Boundary Condition Object
  SunExposed,                             !- Sun Exposure
  WindExposed,                            !- Wind Exposure
  ,                                       !- View Factor to Ground
  ,                                       !- Number of Vertices
  1.77635683940025e-015, 11.129722368505, 3.048, !- X,Y,Z Vertex 1 {m}
  1.77635683940025e-015, 11.129722368505, 0, !- X,Y,Z Vertex 2 {m}
  1.77635683940025e-015, -2.66453525910038e-015, 0, !- X,Y,Z Vertex 3 {m}
  1.77635683940025e-015, -2.66453525910038e-015, 3.048; !- X,Y,Z Vertex 4 {m}

OS:Surface,
  {bee0692d-43e0-4344-a332-5c406006da3a}, !- Handle
  Surface 3,                              !- Name
  Wall,                                   !- Surface Type
  ,                                       !- Construction Name
  {1cb50f7e-25ea-4ec3-887b-8f79ae1acd02}, !- Space Name
  Outdoors,                               !- Outside Boundary Condition
  ,                                       !- Outside Boundary Condition Object
  SunExposed,                             !- Sun Exposure
  WindExposed,                            !- Wind Exposure
  ,                                       !- View Factor to Ground
  ,                                       !- Number of Vertices
  16.6945835527575, 11.129722368505, 3.048, !- X,Y,Z Vertex 1 {m}
  16.6945835527575, 11.129722368505, 0,   !- X,Y,Z Vertex 2 {m}
  1.77635683940025e-015, 11.129722368505, 0, !- X,Y,Z Vertex 3 {m}
  1.77635683940025e-015, 11.129722368505, 3.048; !- X,Y,Z Vertex 4 {m}

OS:Surface,
  {fa89edc8-948c-46c9-aa78-bd7d63afff80}, !- Handle
  Surface 4,                              !- Name
  Wall,                                   !- Surface Type
  ,                                       !- Construction Name
  {1cb50f7e-25ea-4ec3-887b-8f79ae1acd02}, !- Space Name
  Outdoors,                               !- Outside Boundary Condition
  ,                                       !- Outside Boundary Condition Object
  SunExposed,                             !- Sun Exposure
  WindExposed,                            !- Wind Exposure
  ,                                       !- View Factor to Ground
  ,                                       !- Number of Vertices
  16.6945835527575, -2.66453525910038e-015, 3.048, !- X,Y,Z Vertex 1 {m}
  16.6945835527575, -2.66453525910038e-015, 0, !- X,Y,Z Vertex 2 {m}
  16.6945835527575, 11.129722368505, 0,   !- X,Y,Z Vertex 3 {m}
  16.6945835527575, 11.129722368505, 3.048; !- X,Y,Z Vertex 4 {m}

OS:Surface,
  {5d1e1f38-1c48-4a4a-956b-ce99aaa64af2}, !- Handle
  Surface 5,                              !- Name
  Wall,                                   !- Surface Type
  ,                                       !- Construction Name
  {1cb50f7e-25ea-4ec3-887b-8f79ae1acd02}, !- Space Name
  Outdoors,                               !- Outside Boundary Condition
  ,                                       !- Outside Boundary Condition Object
  SunExposed,                             !- Sun Exposure
  WindExposed,                            !- Wind Exposure
  ,                                       !- View Factor to Ground
  ,                                       !- Number of Vertices
  1.77635683940025e-015, -2.66453525910038e-015, 3.048, !- X,Y,Z Vertex 1 {m}
  1.77635683940025e-015, -2.66453525910038e-015, 0, !- X,Y,Z Vertex 2 {m}
  16.6945835527575, -2.66453525910038e-015, 0, !- X,Y,Z Vertex 3 {m}
  16.6945835527575, -2.66453525910038e-015, 3.048; !- X,Y,Z Vertex 4 {m}

OS:Surface,
  {62e871b1-7025-4c1b-b9de-594c8a9bbaa3}, !- Handle
  Surface 6,                              !- Name
  RoofCeiling,                            !- Surface Type
  ,                                       !- Construction Name
  {1cb50f7e-25ea-4ec3-887b-8f79ae1acd02}, !- Space Name
  Adiabatic,                              !- Outside Boundary Condition
  ,                                       !- Outside Boundary Condition Object
  NoSun,                                  !- Sun Exposure
  NoWind,                                 !- Wind Exposure
  ,                                       !- View Factor to Ground
  ,                                       !- Number of Vertices
  16.6945835527575, -2.66453525910038e-015, 3.048, !- X,Y,Z Vertex 1 {m}
  16.6945835527575, 11.129722368505, 3.048, !- X,Y,Z Vertex 2 {m}
  1.77635683940025e-015, 11.129722368505, 3.048, !- X,Y,Z Vertex 3 {m}
  1.77635683940025e-015, -2.66453525910038e-015, 3.048; !- X,Y,Z Vertex 4 {m}

OS:ThermalZone,
  {ae2486d3-4d37-4585-9a39-91ede6e75025}, !- Handle
  Zone Office WholeBuilding - Sm Office  - Story Ground, !- Name
  1,                                      !- Multiplier
  ,                                       !- Ceiling Height {m}
  ,                                       !- Volume {m3}
  ,                                       !- Floor Area {m2}
  ,                                       !- Zone Inside Convection Algorithm
  ,                                       !- Zone Outside Convection Algorithm
  ,                                       !- Zone Conditioning Equipment List Name
  {dd3d896e-0b75-43e4-a3ca-91771b5f62cf}, !- Zone Air Inlet Port List
  {84e2c039-a79d-4dbb-bbcd-ce0ecdfcd825}, !- Zone Air Exhaust Port List
  {dcb7ca8c-aabf-470d-803d-a85f79ec72ca}, !- Zone Air Node Name
  {e2765504-6dec-44db-9c0c-07718ba47a1c}, !- Zone Return Air Port List
  ,                                       !- Primary Daylighting Control Name
  ,                                       !- Fraction of Zone Controlled by Primary Daylighting Control
  ,                                       !- Secondary Daylighting Control Name
  ,                                       !- Fraction of Zone Controlled by Secondary Daylighting Control
  ,                                       !- Illuminance Map Name
  ,                                       !- Group Rendering Name
  ,                                       !- Thermostat Name
  No;                                     !- Use Ideal Air Loads

OS:Node,
  {aac47ecb-c5c3-44f4-886a-9027e27ba93f}, !- Handle
  Node 1,                                 !- Name
  {dcb7ca8c-aabf-470d-803d-a85f79ec72ca}, !- Inlet Port
  ;                                       !- Outlet Port

OS:Connection,
  {dcb7ca8c-aabf-470d-803d-a85f79ec72ca}, !- Handle
  {07816843-1d55-458c-9ec1-14db8f6a8432}, !- Name
  {ae2486d3-4d37-4585-9a39-91ede6e75025}, !- Source Object
  11,                                     !- Outlet Port
  {aac47ecb-c5c3-44f4-886a-9027e27ba93f}, !- Target Object
  2;                                      !- Inlet Port

OS:PortList,
  {dd3d896e-0b75-43e4-a3ca-91771b5f62cf}, !- Handle
  {bc9d1f18-d430-4788-9600-bb4d749999c7}, !- Name
  {ae2486d3-4d37-4585-9a39-91ede6e75025}; !- HVAC Component

OS:PortList,
  {84e2c039-a79d-4dbb-bbcd-ce0ecdfcd825}, !- Handle
  {149edb64-bd1f-4f15-82cc-9e0b2961b1b4}, !- Name
  {ae2486d3-4d37-4585-9a39-91ede6e75025}; !- HVAC Component

OS:PortList,
  {e2765504-6dec-44db-9c0c-07718ba47a1c}, !- Handle
  {c04a0e1a-9834-4d09-883d-e10237c11ada}, !- Name
  {ae2486d3-4d37-4585-9a39-91ede6e75025}; !- HVAC Component

OS:Sizing:Zone,
  {3189c15e-91b2-4d51-ad7b-301182e3eee5}, !- Handle
  {ae2486d3-4d37-4585-9a39-91ede6e75025}, !- Zone or ZoneList Name
  SupplyAirTemperature,                   !- Zone Cooling Design Supply Air Temperature Input Method
  14,                                     !- Zone Cooling Design Supply Air Temperature {C}
  11.11,                                  !- Zone Cooling Design Supply Air Temperature Difference {deltaC}
  SupplyAirTemperature,                   !- Zone Heating Design Supply Air Temperature Input Method
  40,                                     !- Zone Heating Design Supply Air Temperature {C}
  11.11,                                  !- Zone Heating Design Supply Air Temperature Difference {deltaC}
  0.0085,                                 !- Zone Cooling Design Supply Air Humidity Ratio {kg-H2O/kg-air}
  0.008,                                  !- Zone Heating Design Supply Air Humidity Ratio {kg-H2O/kg-air}
  ,                                       !- Zone Heating Sizing Factor
  ,                                       !- Zone Cooling Sizing Factor
  DesignDay,                              !- Cooling Design Air Flow Method
  ,                                       !- Cooling Design Air Flow Rate {m3/s}
  ,                                       !- Cooling Minimum Air Flow per Zone Floor Area {m3/s-m2}
  ,                                       !- Cooling Minimum Air Flow {m3/s}
  ,                                       !- Cooling Minimum Air Flow Fraction
  DesignDay,                              !- Heating Design Air Flow Method
  ,                                       !- Heating Design Air Flow Rate {m3/s}
  ,                                       !- Heating Maximum Air Flow per Zone Floor Area {m3/s-m2}
  ,                                       !- Heating Maximum Air Flow {m3/s}
  ,                                       !- Heating Maximum Air Flow Fraction
  ,                                       !- Design Zone Air Distribution Effectiveness in Cooling Mode
  ,                                       !- Design Zone Air Distribution Effectiveness in Heating Mode
  No,                                     !- Account for Dedicated Outdoor Air System
  NeutralSupplyAir,                       !- Dedicated Outdoor Air System Control Strategy
  autosize,                               !- Dedicated Outdoor Air Low Setpoint Temperature for Design {C}
  autosize;                               !- Dedicated Outdoor Air High Setpoint Temperature for Design {C}

OS:ZoneHVAC:EquipmentList,
  {ea348c84-3834-4a88-9938-2ac84b58ece9}, !- Handle
  Zone HVAC Equipment List 1,             !- Name
  {ae2486d3-4d37-4585-9a39-91ede6e75025}; !- Thermal Zone

OS:BuildingStory,
  {6670c8a5-4359-4534-977e-2cbad02c6561}, !- Handle
  Story Mid,                              !- Name
  6.096,                                  !- Nominal Z Coordinate {m}
  3.048,                                  !- Nominal Floor to Floor Height {m}
  ,                                       !- Default Construction Set Name
  ,                                       !- Default Schedule Set Name
  ;                                       !- Group Rendering Name

OS:Space,
  {40a00ae2-f14c-4ab2-a59f-7ccd1e46228a}, !- Handle
  Office WholeBuilding - Sm Office  - Story Mid, !- Name
  {70688c8a-f5ad-4c99-aba2-cce93df2cb83}, !- Space Type Name
  ,                                       !- Default Construction Set Name
  ,                                       !- Default Schedule Set Name
  -0,                                     !- Direction of Relative North {deg}
  -8.34729177637873,                      !- X Origin {m}
  -5.56486118425249,                      !- Y Origin {m}
  6.096,                                  !- Z Origin {m}
  {6670c8a5-4359-4534-977e-2cbad02c6561}, !- Building Story Name
  {f2dfb625-16b9-487a-965f-1fa36546f8fb}; !- Thermal Zone Name

OS:Surface,
  {7872c235-107d-42a5-928e-d8454a1b09ea}, !- Handle
  Surface 7,                              !- Name
  Floor,                                  !- Surface Type
  ,                                       !- Construction Name
  {40a00ae2-f14c-4ab2-a59f-7ccd1e46228a}, !- Space Name
  Adiabatic,                              !- Outside Boundary Condition
  ,                                       !- Outside Boundary Condition Object
  NoSun,                                  !- Sun Exposure
  NoWind,                                 !- Wind Exposure
  ,                                       !- View Factor to Ground
  ,                                       !- Number of Vertices
  1.77635683940025e-015, -2.66453525910038e-015, 0, !- X,Y,Z Vertex 1 {m}
  1.77635683940025e-015, 11.129722368505, 0, !- X,Y,Z Vertex 2 {m}
  16.6945835527575, 11.129722368505, 0,   !- X,Y,Z Vertex 3 {m}
  16.6945835527575, -2.66453525910038e-015, 0; !- X,Y,Z Vertex 4 {m}

OS:Surface,
  {44c03e5c-2496-49e5-a7f0-8bbbab313b6b}, !- Handle
  Surface 8,                              !- Name
  Wall,                                   !- Surface Type
  ,                                       !- Construction Name
  {40a00ae2-f14c-4ab2-a59f-7ccd1e46228a}, !- Space Name
  Outdoors,                               !- Outside Boundary Condition
  ,                                       !- Outside Boundary Condition Object
  SunExposed,                             !- Sun Exposure
  WindExposed,                            !- Wind Exposure
  ,                                       !- View Factor to Ground
  ,                                       !- Number of Vertices
  1.77635683940025e-015, 11.129722368505, 3.048, !- X,Y,Z Vertex 1 {m}
  1.77635683940025e-015, 11.129722368505, 0, !- X,Y,Z Vertex 2 {m}
  1.77635683940025e-015, -2.66453525910038e-015, 0, !- X,Y,Z Vertex 3 {m}
  1.77635683940025e-015, -2.66453525910038e-015, 3.048; !- X,Y,Z Vertex 4 {m}

OS:Surface,
  {074d8f46-9bac-4fd7-9bf2-2cc7e91b6bdd}, !- Handle
  Surface 9,                              !- Name
  Wall,                                   !- Surface Type
  ,                                       !- Construction Name
  {40a00ae2-f14c-4ab2-a59f-7ccd1e46228a}, !- Space Name
  Outdoors,                               !- Outside Boundary Condition
  ,                                       !- Outside Boundary Condition Object
  SunExposed,                             !- Sun Exposure
  WindExposed,                            !- Wind Exposure
  ,                                       !- View Factor to Ground
  ,                                       !- Number of Vertices
  16.6945835527575, 11.129722368505, 3.048, !- X,Y,Z Vertex 1 {m}
  16.6945835527575, 11.129722368505, 0,   !- X,Y,Z Vertex 2 {m}
  1.77635683940025e-015, 11.129722368505, 0, !- X,Y,Z Vertex 3 {m}
  1.77635683940025e-015, 11.129722368505, 3.048; !- X,Y,Z Vertex 4 {m}

OS:Surface,
  {52cb8a9c-5180-45d6-a6b9-8acea319eb05}, !- Handle
  Surface 10,                             !- Name
  Wall,                                   !- Surface Type
  ,                                       !- Construction Name
  {40a00ae2-f14c-4ab2-a59f-7ccd1e46228a}, !- Space Name
  Outdoors,                               !- Outside Boundary Condition
  ,                                       !- Outside Boundary Condition Object
  SunExposed,                             !- Sun Exposure
  WindExposed,                            !- Wind Exposure
  ,                                       !- View Factor to Ground
  ,                                       !- Number of Vertices
  16.6945835527575, -2.66453525910038e-015, 3.048, !- X,Y,Z Vertex 1 {m}
  16.6945835527575, -2.66453525910038e-015, 0, !- X,Y,Z Vertex 2 {m}
  16.6945835527575, 11.129722368505, 0,   !- X,Y,Z Vertex 3 {m}
  16.6945835527575, 11.129722368505, 3.048; !- X,Y,Z Vertex 4 {m}

OS:Surface,
  {9685a1af-9f64-4a4a-88d4-0ab885144f19}, !- Handle
  Surface 11,                             !- Name
  Wall,                                   !- Surface Type
  ,                                       !- Construction Name
  {40a00ae2-f14c-4ab2-a59f-7ccd1e46228a}, !- Space Name
  Outdoors,                               !- Outside Boundary Condition
  ,                                       !- Outside Boundary Condition Object
  SunExposed,                             !- Sun Exposure
  WindExposed,                            !- Wind Exposure
  ,                                       !- View Factor to Ground
  ,                                       !- Number of Vertices
  1.77635683940025e-015, -2.66453525910038e-015, 3.048, !- X,Y,Z Vertex 1 {m}
  1.77635683940025e-015, -2.66453525910038e-015, 0, !- X,Y,Z Vertex 2 {m}
  16.6945835527575, -2.66453525910038e-015, 0, !- X,Y,Z Vertex 3 {m}
  16.6945835527575, -2.66453525910038e-015, 3.048; !- X,Y,Z Vertex 4 {m}

OS:Surface,
  {c6aab3dc-2afd-4525-af8e-35669023bf55}, !- Handle
  Surface 12,                             !- Name
  RoofCeiling,                            !- Surface Type
  ,                                       !- Construction Name
  {40a00ae2-f14c-4ab2-a59f-7ccd1e46228a}, !- Space Name
  Adiabatic,                              !- Outside Boundary Condition
  ,                                       !- Outside Boundary Condition Object
  NoSun,                                  !- Sun Exposure
  NoWind,                                 !- Wind Exposure
  ,                                       !- View Factor to Ground
  ,                                       !- Number of Vertices
  16.6945835527575, -2.66453525910038e-015, 3.048, !- X,Y,Z Vertex 1 {m}
  16.6945835527575, 11.129722368505, 3.048, !- X,Y,Z Vertex 2 {m}
  1.77635683940025e-015, 11.129722368505, 3.048, !- X,Y,Z Vertex 3 {m}
  1.77635683940025e-015, -2.66453525910038e-015, 3.048; !- X,Y,Z Vertex 4 {m}

OS:ThermalZone,
  {f2dfb625-16b9-487a-965f-1fa36546f8fb}, !- Handle
  Zone Office WholeBuilding - Sm Office  - Story Mid, !- Name
  3,                                      !- Multiplier
  ,                                       !- Ceiling Height {m}
  ,                                       !- Volume {m3}
  ,                                       !- Floor Area {m2}
  ,                                       !- Zone Inside Convection Algorithm
  ,                                       !- Zone Outside Convection Algorithm
  ,                                       !- Zone Conditioning Equipment List Name
  {25fd1dce-5f69-4af7-834c-9a718a37956a}, !- Zone Air Inlet Port List
  {d9acc256-e68e-4f13-a56a-23dd3159e20b}, !- Zone Air Exhaust Port List
  {23cbdeb3-de47-4074-873e-861b74c3c62a}, !- Zone Air Node Name
  {d1b089a0-dc03-45c2-9f5b-3998fc87e7bd}, !- Zone Return Air Port List
  ,                                       !- Primary Daylighting Control Name
  ,                                       !- Fraction of Zone Controlled by Primary Daylighting Control
  ,                                       !- Secondary Daylighting Control Name
  ,                                       !- Fraction of Zone Controlled by Secondary Daylighting Control
  ,                                       !- Illuminance Map Name
  ,                                       !- Group Rendering Name
  ,                                       !- Thermostat Name
  No;                                     !- Use Ideal Air Loads

OS:Node,
  {4727d846-2d60-4add-93ba-13cddd8717a5}, !- Handle
  Node 2,                                 !- Name
  {23cbdeb3-de47-4074-873e-861b74c3c62a}, !- Inlet Port
  ;                                       !- Outlet Port

OS:Connection,
  {23cbdeb3-de47-4074-873e-861b74c3c62a}, !- Handle
  {b17245cc-22b3-4c70-8930-6e0d28ef607a}, !- Name
  {f2dfb625-16b9-487a-965f-1fa36546f8fb}, !- Source Object
  11,                                     !- Outlet Port
  {4727d846-2d60-4add-93ba-13cddd8717a5}, !- Target Object
  2;                                      !- Inlet Port

OS:PortList,
  {25fd1dce-5f69-4af7-834c-9a718a37956a}, !- Handle
  {07a23d36-9f82-43e8-8ed6-7acb76832643}, !- Name
  {f2dfb625-16b9-487a-965f-1fa36546f8fb}; !- HVAC Component

OS:PortList,
  {d9acc256-e68e-4f13-a56a-23dd3159e20b}, !- Handle
  {ce8f24b0-1b32-4555-a10b-ed6d710caeb6}, !- Name
  {f2dfb625-16b9-487a-965f-1fa36546f8fb}; !- HVAC Component

OS:PortList,
  {d1b089a0-dc03-45c2-9f5b-3998fc87e7bd}, !- Handle
  {29fe5bea-73b8-424b-b3b2-faab268dfc45}, !- Name
  {f2dfb625-16b9-487a-965f-1fa36546f8fb}; !- HVAC Component

OS:Sizing:Zone,
  {d3363879-967a-4541-83c4-2f943da6c294}, !- Handle
  {f2dfb625-16b9-487a-965f-1fa36546f8fb}, !- Zone or ZoneList Name
  SupplyAirTemperature,                   !- Zone Cooling Design Supply Air Temperature Input Method
  14,                                     !- Zone Cooling Design Supply Air Temperature {C}
  11.11,                                  !- Zone Cooling Design Supply Air Temperature Difference {deltaC}
  SupplyAirTemperature,                   !- Zone Heating Design Supply Air Temperature Input Method
  40,                                     !- Zone Heating Design Supply Air Temperature {C}
  11.11,                                  !- Zone Heating Design Supply Air Temperature Difference {deltaC}
  0.0085,                                 !- Zone Cooling Design Supply Air Humidity Ratio {kg-H2O/kg-air}
  0.008,                                  !- Zone Heating Design Supply Air Humidity Ratio {kg-H2O/kg-air}
  ,                                       !- Zone Heating Sizing Factor
  ,                                       !- Zone Cooling Sizing Factor
  DesignDay,                              !- Cooling Design Air Flow Method
  ,                                       !- Cooling Design Air Flow Rate {m3/s}
  ,                                       !- Cooling Minimum Air Flow per Zone Floor Area {m3/s-m2}
  ,                                       !- Cooling Minimum Air Flow {m3/s}
  ,                                       !- Cooling Minimum Air Flow Fraction
  DesignDay,                              !- Heating Design Air Flow Method
  ,                                       !- Heating Design Air Flow Rate {m3/s}
  ,                                       !- Heating Maximum Air Flow per Zone Floor Area {m3/s-m2}
  ,                                       !- Heating Maximum Air Flow {m3/s}
  ,                                       !- Heating Maximum Air Flow Fraction
  ,                                       !- Design Zone Air Distribution Effectiveness in Cooling Mode
  ,                                       !- Design Zone Air Distribution Effectiveness in Heating Mode
  No,                                     !- Account for Dedicated Outdoor Air System
  NeutralSupplyAir,                       !- Dedicated Outdoor Air System Control Strategy
  autosize,                               !- Dedicated Outdoor Air Low Setpoint Temperature for Design {C}
  autosize;                               !- Dedicated Outdoor Air High Setpoint Temperature for Design {C}

OS:ZoneHVAC:EquipmentList,
  {f869ab00-e7a7-487b-89ee-f0764fabfa6e}, !- Handle
  Zone HVAC Equipment List 2,             !- Name
  {f2dfb625-16b9-487a-965f-1fa36546f8fb}; !- Thermal Zone

OS:BuildingStory,
  {cb782c54-0809-4236-b68d-7d83f10b6ad3}, !- Handle
  Story Top,                              !- Name
  12.192,                                 !- Nominal Z Coordinate {m}
  3.048,                                  !- Nominal Floor to Floor Height {m}
  ,                                       !- Default Construction Set Name
  ,                                       !- Default Schedule Set Name
  ;                                       !- Group Rendering Name

OS:Space,
  {4967b2b8-0fa2-43ce-ae6a-1a177d42bd72}, !- Handle
  Office WholeBuilding - Sm Office  - Story Top, !- Name
  {70688c8a-f5ad-4c99-aba2-cce93df2cb83}, !- Space Type Name
  ,                                       !- Default Construction Set Name
  ,                                       !- Default Schedule Set Name
  -0,                                     !- Direction of Relative North {deg}
  -8.34729177637873,                      !- X Origin {m}
  -5.56486118425249,                      !- Y Origin {m}
  12.192,                                 !- Z Origin {m}
  {cb782c54-0809-4236-b68d-7d83f10b6ad3}, !- Building Story Name
  {aae3e4dd-26c0-4589-aca8-0e4b11cc0574}; !- Thermal Zone Name

OS:Surface,
  {5ae2ece3-3cf7-41f0-83a4-56df99c435f3}, !- Handle
  Surface 13,                             !- Name
  Floor,                                  !- Surface Type
  ,                                       !- Construction Name
  {4967b2b8-0fa2-43ce-ae6a-1a177d42bd72}, !- Space Name
  Adiabatic,                              !- Outside Boundary Condition
  ,                                       !- Outside Boundary Condition Object
  NoSun,                                  !- Sun Exposure
  NoWind,                                 !- Wind Exposure
  ,                                       !- View Factor to Ground
  ,                                       !- Number of Vertices
  1.77635683940025e-015, -2.66453525910038e-015, 0, !- X,Y,Z Vertex 1 {m}
  1.77635683940025e-015, 11.129722368505, 0, !- X,Y,Z Vertex 2 {m}
  16.6945835527575, 11.129722368505, 0,   !- X,Y,Z Vertex 3 {m}
  16.6945835527575, -2.66453525910038e-015, 0; !- X,Y,Z Vertex 4 {m}

OS:Surface,
  {9d9aae17-f736-4e8e-9382-6bb46f66e42a}, !- Handle
  Surface 14,                             !- Name
  Wall,                                   !- Surface Type
  ,                                       !- Construction Name
  {4967b2b8-0fa2-43ce-ae6a-1a177d42bd72}, !- Space Name
  Outdoors,                               !- Outside Boundary Condition
  ,                                       !- Outside Boundary Condition Object
  SunExposed,                             !- Sun Exposure
  WindExposed,                            !- Wind Exposure
  ,                                       !- View Factor to Ground
  ,                                       !- Number of Vertices
  1.77635683940025e-015, 11.129722368505, 3.048, !- X,Y,Z Vertex 1 {m}
  1.77635683940025e-015, 11.129722368505, 0, !- X,Y,Z Vertex 2 {m}
  1.77635683940025e-015, -2.66453525910038e-015, 0, !- X,Y,Z Vertex 3 {m}
  1.77635683940025e-015, -2.66453525910038e-015, 3.048; !- X,Y,Z Vertex 4 {m}

OS:Surface,
  {223d1e7b-d8c9-4781-82d3-0cd56c885233}, !- Handle
  Surface 15,                             !- Name