
OS:Version,
  {4c4f583f-3861-4384-8b03-4c0073228af8}, !- Handle
  2.7.2;                                  !- Version Identifier

OS:SpaceType,
  {4f5d15a4-7954-4e00-82d5-efc8da7be5d7}, !- Handle
  LargeHotel Banquet,                     !- Name
  ,                                       !- Default Construction Set Name
  ,                                       !- Default Schedule Set Name
  {36b29cd4-c565-4c83-b1ce-87176953df5f}, !- Group Rendering Name
  ,                                       !- Design Specification Outdoor Air Object Name
  ,                                       !- Standards Template
  LargeHotel,                             !- Standards Building Type
  Banquet;                                !- Standards Space Type

OS:Rendering:Color,
  {36b29cd4-c565-4c83-b1ce-87176953df5f}, !- Handle
  LargeHotel Banquet,                     !- Name
  230,                                    !- Rendering Red Value
  196,                                    !- Rendering Green Value
  120;                                    !- Rendering Blue Value

OS:SpaceType,
  {8fee7597-2b9a-4c86-a1a1-41bde4f68aa2}, !- Handle
  LargeHotel Cafe,                        !- Name
  ,                                       !- Default Construction Set Name
  ,                                       !- Default Schedule Set Name
  {30d43646-ce62-49b0-b5cf-821dca2f61de}, !- Group Rendering Name
  ,                                       !- Design Specification Outdoor Air Object Name
  ,                                       !- Standards Template
  LargeHotel,                             !- Standards Building Type
  Cafe;                                   !- Standards Space Type

OS:Rendering:Color,
  {30d43646-ce62-49b0-b5cf-821dca2f61de}, !- Handle
  LargeHotel Cafe,                        !- Name
  31,                                     !- Rendering Red Value
  169,                                    !- Rendering Green Value
  34;                                     !- Rendering Blue Value

OS:SpaceType,
  {ccdb4275-5e0f-492b-8f4a-f8f886c703a4}, !- Handle
  LargeHotel Corridor,                    !- Name
  ,                                       !- Default Construction Set Name
  ,                                       !- Default Schedule Set Name
  {4b4f709d-c65b-40fb-9684-5731ae654552}, !- Group Rendering Name
  ,                                       !- Design Specification Outdoor Air Object Name
  ,                                       !- Standards Template
  LargeHotel,                             !- Standards Building Type
  Corridor;                               !- Standards Space Type

OS:Rendering:Color,
  {4b4f709d-c65b-40fb-9684-5731ae654552}, !- Handle
  LargeHotel Corridor,                    !- Name
  169,                                    !- Rendering Red Value
  31,                                     !- Rendering Green Value
  31;                                     !- Rendering Blue Value

OS:SpaceType,
  {2aaec6e6-92eb-4c5c-9b9a-436012904457}, !- Handle
  LargeHotel GuestRoom,                   !- Name
  ,                                       !- Default Construction Set Name
  ,                                       !- Default Schedule Set Name
  {f5a30372-70dd-4012-a66b-5d33273b718e}, !- Group Rendering Name
  ,                                       !- Design Specification Outdoor Air Object Name
  ,                                       !- Standards Template
  LargeHotel,                             !- Standards Building Type
  GuestRoom;                              !- Standards Space Type

OS:Rendering:Color,
  {f5a30372-70dd-4012-a66b-5d33273b718e}, !- Handle
  LargeHotel GuestRoom,                   !- Name
  78,                                     !- Rendering Red Value
  167,                                    !- Rendering Green Value
  222;                                    !- Rendering Blue Value

OS:SpaceType,
  {761855b7-803f-42f2-9636-ec13d6bf0a20}, !- Handle
  LargeHotel Kitchen,                     !- Name
  ,                                       !- Default Construction Set Name
  ,                                       !- Default Schedule Set Name
  {82b8efc0-4c8f-4fb0-99c9-fd55c9f3d543}, !- Group Rendering Name
  ,                                       !- Design Specification Outdoor Air Object Name
  ,                                       !- Standards Template
  LargeHotel,                             !- Standards Building Type
  Kitchen;                                !- Standards Space Type

OS:Rendering:Color,
  {82b8efc0-4c8f-4fb0-99c9-fd55c9f3d543}, !- Handle
  LargeHotel Kitchen,                     !- Name
  78,                                     !- Rendering Red Value
  222,                                    !- Rendering Green Value
  133;                                    !- Rendering Blue Value

OS:SpaceType,
  {7bbbddeb-8848-4b8c-a5d7-90d7306df238}, !- Handle
  LargeHotel Laundry,                     !- Name
  ,                                       !- Default Construction Set Name
  ,                                       !- Default Schedule Set Name
  {412867e7-37f7-49f0-af25-d567f6c80358}, !- Group Rendering Name
  ,                                       !- Design Specification Outdoor Air Object Name
  ,                                       !- Standards Template
  LargeHotel,                             !- Standards Building Type
  Laundry;                                !- Standards Space Type

OS:Rendering:Color,
  {412867e7-37f7-49f0-af25-d567f6c80358}, !- Handle
  LargeHotel Laundry,                     !- Name
  120,                                    !- Rendering Red Value
  149,                                    !- Rendering Green Value
  230;                                    !- Rendering Blue Value

OS:SpaceType,
  {e6b2b650-58ef-4298-ada2-1893111a4104}, !- Handle
  LargeHotel Lobby,                       !- Name
  ,                                       !- Default Construction Set Name
  ,                                       !- Default Schedule Set Name
  {318c5282-6d09-4c65-96ab-c58c0fc1afc8}, !- Group Rendering Name
  ,                                       !- Design Specification Outdoor Air Object Name
  ,                                       !- Standards Template
  LargeHotel,                             !- Standards Building Type
  Lobby;                                  !- Standards Space Type

OS:Rendering:Color,
  {318c5282-6d09-4c65-96ab-c58c0fc1afc8}, !- Handle
  LargeHotel Lobby,                       !- Name
  230,                                    !- Rendering Red Value
  157,                                    !- Rendering Green Value
  120;                                    !- Rendering Blue Value

OS:SpaceType,
  {4ba333f0-1749-4a21-aba4-272457806b30}, !- Handle
  LargeHotel Mechanical,                  !- Name
  ,                                       !- Default Construction Set Name
  ,                                       !- Default Schedule Set Name
  {056280b0-9e48-4261-b2ff-fa400374f40b}, !- Group Rendering Name
  ,                                       !- Design Specification Outdoor Air Object Name
  ,                                       !- Standards Template
  LargeHotel,                             !- Standards Building Type
  Mechanical;                             !- Standards Space Type

OS:Rendering:Color,
  {056280b0-9e48-4261-b2ff-fa400374f40b}, !- Handle
  LargeHotel Mechanical,                  !- Name
  41,                                     !- Rendering Red Value
  31,                                     !- Rendering Green Value
  169;                                    !- Rendering Blue Value

OS:SpaceType,
  {78841241-a6c2-4be2-a5d2-0d7abb28fb2f}, !- Handle
  LargeHotel Retail,                      !- Name
  ,                                       !- Default Construction Set Name
  ,                                       !- Default Schedule Set Name
  {a275fe80-b4e8-420a-9784-53f273a47bf6}, !- Group Rendering Name
  ,                                       !- Design Specification Outdoor Air Object Name
  ,                                       !- Standards Template
  LargeHotel,                             !- Standards Building Type
  Retail;                                 !- Standards Space Type

OS:Rendering:Color,
  {a275fe80-b4e8-420a-9784-53f273a47bf6}, !- Handle
  LargeHotel Retail,                      !- Name
  171,                                    !- Rendering Red Value
  222,                                    !- Rendering Green Value
  78;                                     !- Rendering Blue Value

OS:SpaceType,
  {4f936a96-b8ad-4e62-8d04-51b1ae1b076c}, !- Handle
  LargeHotel Storage,                     !- Name
  ,                                       !- Default Construction Set Name
  ,                                       !- Default Schedule Set Name
  {e3acda3e-2d66-49b0-a708-5652c7a65ae3}, !- Group Rendering Name
  ,                                       !- Design Specification Outdoor Air Object Name
  ,                                       !- Standards Template
  LargeHotel,                             !- Standards Building Type
  Storage;                                !- Standards Space Type

OS:Rendering:Color,
  {e3acda3e-2d66-49b0-a708-5652c7a65ae3}, !- Handle
  LargeHotel Storage,                     !- Name
  120,                                    !- Rendering Red Value
  149,                                    !- Rendering Green Value
  230;                                    !- Rendering Blue Value

OS:SpaceType,
  {333244ea-5558-44fa-a7ca-10d605ed4fbd}, !- Handle
  FullServiceRestaurant Dining,           !- Name
  ,                                       !- Default Construction Set Name
  ,                                       !- Default Schedule Set Name
  {14d6bd7f-810f-49d5-a6c7-a6c06b70b625}, !- Group Rendering Name
  ,                                       !- Design Specification Outdoor Air Object Name
  ,                                       !- Standards Template
  FullServiceRestaurant,                  !- Standards Building Type
  Dining;                                 !- Standards Space Type

OS:Rendering:Color,
  {14d6bd7f-810f-49d5-a6c7-a6c06b70b625}, !- Handle
  FullServiceRestaurant Dining,           !- Name
  31,                                     !- Rendering Red Value
  169,                                    !- Rendering Green Value
  34;                                     !- Rendering Blue Value

OS:SpaceType,
  {c12a353e-d247-48b6-95cb-5bcdedd9295d}, !- Handle
  FullServiceRestaurant Kitchen,          !- Name
  ,                                       !- Default Construction Set Name
  ,                                       !- Default Schedule Set Name
  {46103493-4d4f-4fa4-a907-3efa6f3d1096}, !- Group Rendering Name
  ,                                       !- Design Specification Outdoor Air Object Name
  ,                                       !- Standards Template
  FullServiceRestaurant,                  !- Standards Building Type
  Kitchen;                                !- Standards Space Type

OS:Rendering:Color,
  {46103493-4d4f-4fa4-a907-3efa6f3d1096}, !- Handle
  FullServiceRestaurant Kitchen,          !- Name
  78,                                     !- Rendering Red Value
  222,                                    !- Rendering Green Value
  133;                                    !- Rendering Blue Value

OS:Building,
  {5186fcff-eff9-4f9e-8d06-155b17b262b1}, !- Handle
  90.1-2004|LargeHotel|FullServiceRestaurant, !- Name
  ,                                       !- Building Sector Type
  ,                                       !- North Axis {deg}
  ,                                       !- Nominal Floor to Floor Height {m}
  ,                                       !- Space Type Name
  ,                                       !- Default Construction Set Name
  ;                                       !- Default Schedule Set Name

OS:Site,
  {b6e3fb9d-a566-43de-acf1-19f6c389d4bf}, !- Handle
  Site 1,                                 !- Name
  ,                                       !- Latitude {deg}
  ,                                       !- Longitude {deg}
  ,                                       !- Time Zone {hr}
  ,                                       !- Elevation {m}
  ;                                       !- Terrain

OS:BuildingStory,
  {34dfd3eb-064e-4b7a-962a-ddd79f725144}, !- Handle
  Story Ground,                           !- Name
  0,                                      !- Nominal Z Coordinate {m}
  3.048,                                  !- Nominal Floor to Floor Height {m}
  ,                                       !- Default Construction Set Name
  ,                                       !- Default Schedule Set Name
  ;                                       !- Group Rendering Name

OS:Space,
  {bce01a16-9398-43ee-bbdb-22ddc3814b6f}, !- Handle
  LargeHotel Lobby A end_a - Story Ground, !- Name
  {e6b2b650-58ef-4298-ada2-1893111a4104}, !- Space Type Name
  ,                                       !- Default Construction Set Name
  ,                                       !- Default Schedule Set Name
  -0,                                     !- Direction of Relative North {deg}
  -62.8361297344131,                      !- X Origin {m}
  -12.3208097518457,                      !- Y Origin {m}
  0,                                      !- Z Origin {m}
  {34dfd3eb-064e-4b7a-962a-ddd79f725144}, !- Building Story Name
  {df48b437-106c-48b0-b37c-dabbe5456384}; !- Thermal Zone Name

OS:Surface,
  {d62bc2d3-115c-4b9b-9345-45f8799871bb}, !- Handle
  Surface 1,                              !- Name
  Floor,                                  !- Surface Type
  ,                                       !- Construction Name
  {bce01a16-9398-43ee-bbdb-22ddc3814b6f}, !- Space Name
  Ground,                                 !- Outside Boundary Condition
  ,                                       !- Outside Boundary Condition Object
  NoSun,                                  !- Sun Exposure
  NoWind,                                 !- Wind Exposure
  ,                                       !- View Factor to Ground
  ,                                       !- Number of Vertices
  4.9737991503207e-014, 1.59872115546023e-014, 0, !- X,Y,Z Vertex 1 {m}
  4.9737991503207e-014, 4.57199999999999, 0, !- X,Y,Z Vertex 2 {m}
  4.57200000000005, 4.57199999999999, 0,  !- X,Y,Z Vertex 3 {m}
  4.57200000000005, 1.59872115546023e-014, 0; !- X,Y,Z Vertex 4 {m}

OS:Surface,
  {87083a41-cf03-4089-b731-d841eabf06da}, !- Handle
  Surface 2,                              !- Name
  Wall,                                   !- Surface Type
  ,                                       !- Construction Name
  {bce01a16-9398-43ee-bbdb-22ddc3814b6f}, !- Space Name
  Outdoors,                               !- Outside Boundary Condition
  ,                                       !- Outside Boundary Condition Object
  SunExposed,                             !- Sun Exposure
  WindExposed,                            !- Wind Exposure
  ,                                       !- View Factor to Ground
  ,                                       !- Number of Vertices
  4.9737991503207e-014, 4.57199999999999, 3.048, !- X,Y,Z Vertex 1 {m}
  4.9737991503207e-014, 4.57199999999999, 0, !- X,Y,Z Vertex 2 {m}
  4.9737991503207e-014, 1.59872115546023e-014, 0, !- X,Y,Z Vertex 3 {m}
  4.9737991503207e-014, 1.59872115546023e-014, 3.048; !- X,Y,Z Vertex 4 {m}

OS:Surface,
  {47be34d2-443f-402e-9b72-239a7b6d178e}, !- Handle
  Surface 3,                              !- Name
  Wall,                                   !- Surface Type
  ,                                       !- Construction Name
  {bce01a16-9398-43ee-bbdb-22ddc3814b6f}, !- Space Name
  Surface,                                !- Outside Boundary Condition
  {62645051-771b-4611-ae03-a33a72c1fcf1}, !- Outside Boundary Condition Object
  NoSun,                                  !- Sun Exposure
  NoWind,                                 !- Wind Exposure
  ,                                       !- View Factor to Ground
  ,                                       !- Number of Vertices
  4.57200000000005, 4.57199999999999, 3.048, !- X,Y,Z Vertex 1 {m}
  4.57200000000005, 4.57199999999999, 0,  !- X,Y,Z Vertex 2 {m}
  4.9737991503207e-014, 4.57199999999999, 0, !- X,Y,Z Vertex 3 {m}
  4.9737991503207e-014, 4.57199999999999, 3.048; !- X,Y,Z Vertex 4 {m}

OS:Surface,
  {2f4e8cc7-7bd6-4cf4-af3e-d51b3c91c93f}, !- Handle
  Surface 4,                              !- Name
  Wall,                                   !- Surface Type
  ,                                       !- Construction Name
  {bce01a16-9398-43ee-bbdb-22ddc3814b6f}, !- Space Name
  Surface,                                !- Outside Boundary Condition
  {7726c346-3b31-4ff5-9579-6bb0869de4d4}, !- Outside Boundary Condition Object
  NoSun,                                  !- Sun Exposure
  NoWind,                                 !- Wind Exposure
  ,                                       !- View Factor to Ground
  ,                                       !- Number of Vertices
  4.57200000000005, 1.59872115546023e-014, 3.048, !- X,Y,Z Vertex 1 {m}
  4.57200000000005, 1.59872115546023e-014, 0, !- X,Y,Z Vertex 2 {m}
  4.57200000000005, 4.57199999999999, 0,  !- X,Y,Z Vertex 3 {m}
  4.57200000000005, 4.57199999999999, 3.048; !- X,Y,Z Vertex 4 {m}

OS:Surface,
  {f110ab0c-03ec-47b1-86cc-b1e28ad3a7c8}, !- Handle
  Surface 5,                              !- Name
  Wall,                                   !- Surface Type
  ,                                       !- Construction Name
  {bce01a16-9398-43ee-bbdb-22ddc3814b6f}, !- Space Name
  Outdoors,                               !- Outside Boundary Condition
  ,                                       !- Outside Boundary Condition Object
  SunExposed,                             !- Sun Exposure
  WindExposed,                            !- Wind Exposure
  ,                                       !- View Factor to Ground
  ,                                       !- Number of Vertices
  4.9737991503207e-014, 1.59872115546023e-014, 3.048, !- X,Y,Z Vertex 1 {m}
  4.9737991503207e-014, 1.59872115546023e-014, 0, !- X,Y,Z Vertex 2 {m}
  4.57200000000005, 1.59872115546023e-014, 0, !- X,Y,Z Vertex 3 {m}
  4.57200000000005, 1.59872115546023e-014, 3.048; !- X,Y,Z Vertex 4 {m}

OS:Surface,
  {a4a009b4-59bf-4fcb-b853-9722d42ea9f0}, !- Handle
  Surface 6,                              !- Name
  RoofCeiling,                            !- Surface Type
  ,                                       !- Construction Name
  {bce01a16-9398-43ee-bbdb-22ddc3814b6f}, !- Space Name
  Surface,                                !- Outside Boundary Condition
  {02c4f9b8-e5ba-4f7f-9644-6b664b38f996}, !- Outside Boundary Condition Object
  NoSun,                                  !- Sun Exposure
  NoWind,                                 !- Wind Exposure
  ,                                       !- View Factor to Ground
  ,                                       !- Number of Vertices
  4.57200000000005, 1.59872115546023e-014, 3.048, !- X,Y,Z Vertex 1 {m}
  4.57200000000005, 4.57199999999999, 3.048, !- X,Y,Z Vertex 2 {m}
  4.9737991503207e-014, 4.57199999999999, 3.048, !- X,Y,Z Vertex 3 {m}
  4.9737991503207e-014, 1.59872115546023e-014, 3.048; !- X,Y,Z Vertex 4 {m}

OS:ThermalZone,
  {df48b437-106c-48b0-b37c-dabbe5456384}, !- Handle
  Zone LargeHotel Lobby A end_a - Story Ground, !- Name
  1,                                      !- Multiplier
  ,                                       !- Ceiling Height {m}
  ,                                       !- Volume {m3}
  ,                                       !- Floor Area {m2}
  ,                                       !- Zone Inside Convection Algorithm
  ,                                       !- Zone Outside Convection Algorithm
  ,                                       !- Zone Conditioning Equipment List Name
  {bfa93811-be25-452f-9a01-18de67de03ee}, !- Zone Air Inlet Port List
  {6c3b3493-2cce-4dde-91b2-73463e459f4b}, !- Zone Air Exhaust Port List
  {e64c0edc-467c-41a8-8cfb-c9285f08933d}, !- Zone Air Node Name
  {3427506f-e7d4-4383-b3b8-37bdd2ffa8b3}, !- Zone Return Air Port List
  ,                                       !- Primary Daylighting Control Name
  ,                                       !- Fraction of Zone Controlled by Primary Daylighting Control
  ,                                       !- Secondary Daylighting Control Name
  ,                                       !- Fraction of Zone Controlled by Secondary Daylighting Control
  ,                                       !- Illuminance Map Name
  ,                                       !- Group Rendering Name
  ,                                       !- Thermostat Name
  No;                                     !- Use Ideal Air Loads

OS:Node,
  {1282eb37-ecaf-4ba7-8ff3-58bec8f93534}, !- Handle
  Node 1,                                 !- Name
  {e64c0edc-467c-41a8-8cfb-c9285f08933d}, !- Inlet Port
  ;                                       !- Outlet Port

OS:Connection,
  {e64c0edc-467c-41a8-8cfb-c9285f08933d}, !- Handle
  {ec54fc4c-7c3b-4c10-a5c9-d29fbb94436d}, !- Name
  {df48b437-106c-48b0-b37c-dabbe5456384}, !- Source Object
  11,                                     !- Outlet Port
  {1282eb37-ecaf-4ba7-8ff3-58bec8f93534}, !- Target Object
  2;                                      !- Inlet Port

OS:PortList,
  {bfa93811-be25-452f-9a01-18de67de03ee}, !- Handle
  {9d18c46f-1c9e-4e8c-9069-437a88871a9e}, !- Name
  {df48b437-106c-48b0-b37c-dabbe5456384}; !- HVAC Component

OS:PortList,
  {6c3b3493-2cce-4dde-91b2-73463e459f4b}, !- Handle
  {27c66cae-8ca3-4c2f-9c15-91e5a3d90486}, !- Name
  {df48b437-106c-48b0-b37c-dabbe5456384}; !- HVAC Component

OS:PortList,
  {3427506f-e7d4-4383-b3b8-37bdd2ffa8b3}, !- Handle
  {83766049-1ad8-4020-b963-a25cf6e1c66c}, !- Name
  {df48b437-106c-48b0-b37c-dabbe5456384}; !- HVAC Component

OS:Sizing:Zone,
  {1d265028-c507-4e5e-8eff-80b900cea297}, !- Handle
  {df48b437-106c-48b0-b37c-dabbe5456384}, !- Zone or ZoneList Name
  SupplyAirTemperature,                   !- Zone Cooling Design Supply Air Temperature Input Method
  14,                                     !- Zone Cooling Design Supply Air Temperature {C}
  11.11,                                  !- Zone Cooling Design Supply Air Temperature Difference {deltaC}
  SupplyAirTemperature,                   !- Zone Heating Design Supply Air Temperature Input Method
  40,                                     !- Zone Heating Design Supply Air Temperature {C}
  11.11,                                  !- Zone Heating Design Supply Air Temperature Difference {deltaC}
  0.0085,                                 !- Zone Cooling Design Supply Air Humidity Ratio {kg-H2O/kg-air}
  0.008,                                  !- Zone Heating Design Supply Air Humidity Ratio {kg-H2O/kg-air}
  ,                                       !- Zone Heating Sizing Factor
  ,                                       !- Zone Cooling Sizing Factor
  DesignDay,                              !- Cooling Design Air Flow Method
  ,                                       !- Cooling Design Air Flow Rate {m3/s}
  ,                                       !- Cooling Minimum Air Flow per Zone Floor Area {m3/s-m2}
  ,                                       !- Cooling Minimum Air Flow {m3/s}
  ,                                       !- Cooling Minimum Air Flow Fraction
  DesignDay,                              !- Heating Design Air Flow Method
  ,                                       !- Heating Design Air Flow Rate {m3/s}
  ,                                       !- Heating Maximum Air Flow per Zone Floor Area {m3/s-m2}
  ,                                       !- Heating Maximum Air Flow {m3/s}
  ,                                       !- Heating Maximum Air Flow Fraction
  ,                                       !- Design Zone Air Distribution Effectiveness in Cooling Mode
  ,                                       !- Design Zone Air Distribution Effectiveness in Heating Mode
  No,                                     !- Account for Dedicated Outdoor Air System
  NeutralSupplyAir,                       !- Dedicated Outdoor Air System Control Strategy
  autosize,                               !- Dedicated Outdoor Air Low Setpoint Temperature for Design {C}
  autosize;                               !- Dedicated Outdoor Air High Setpoint Temperature for Design {C}

OS:ZoneHVAC:EquipmentList,
  {a408d562-9987-4b1b-bc5a-f7ef07a9d402}, !- Handle
  Zone HVAC Equipment List 1,             !- Name
  {df48b437-106c-48b0-b37c-dabbe5456384}; !- Thermal Zone

OS:Space,
  {8f04912d-ed57-4a14-9ff7-9dc3ec1d7a3f}, !- Handle
  LargeHotel Lobby B end_a - Story Ground, !- Name
  {e6b2b650-58ef-4298-ada2-1893111a4104}, !- Space Type Name
  ,                                       !- Default Construction Set Name
  ,                                       !- Default Schedule Set Name
  -0,                                     !- Direction of Relative North {deg}
  -62.8361297344131,                      !- X Origin {m}
  -7.74880975184572,                      !- Y Origin {m}
  0,                                      !- Z Origin {m}
  {34dfd3eb-064e-4b7a-962a-ddd79f725144}, !- Building Story Name
  {82ea8680-39ef-424b-99fe-388494303cfd}; !- Thermal Zone Name

OS:Surface,
  {d26fae62-c47f-47b3-9284-9bf4ad6cc610}, !- Handle
  Surface 7,                              !- Name
  Floor,                                  !- Surface Type
  ,                                       !- Construction Name
  {8f04912d-ed57-4a14-9ff7-9dc3ec1d7a3f}, !- Space Name
  Ground,                                 !- Outside Boundary Condition
  ,                                       !- Outside Boundary Condition Object
  NoSun,                                  !- Sun Exposure
  NoWind,                                 !- Wind Exposure
  ,                                       !- View Factor to Ground
  ,                                       !- Number of Vertices
  4.9737991503207e-014, -5.32907051820075e-015, 0, !- X,Y,Z Vertex 1 {m}
  4.9737991503207e-014, 15.4976195036914, 0, !- X,Y,Z Vertex 2 {m}
  4.57200000000005, 15.4976195036914, 0,  !- X,Y,Z Vertex 3 {m}
  4.57200000000005, -5.32907051820075e-015, 0; !- X,Y,Z Vertex 4 {m}

OS:Surface,
  {add8cdbc-aa8b-451e-9b13-def9898e9083}, !- Handle
  Surface 8,                              !- Name
  Wall,                                   !- Surface Type
  ,                                       !- Construction Name
  {8f04912d-ed57-4a14-9ff7-9dc3ec1d7a3f}, !- Space Name
  Outdoors,                               !- Outside Boundary Condition
  ,                                       !- Outside Boundary Condition Object
  SunExposed,                             !- Sun Exposure
  WindExposed,                            !- Wind Exposure
  ,                                       !- View Factor to Ground
  ,                                       !- Number of Vertices
  4.9737991503207e-014, 15.4976195036914, 3.048, !- X,Y,Z Vertex 1 {m}
  4.9737991503207e-014, 15.4976195036914, 0, !- X,Y,Z Vertex 2 {m}
  4.9737991503207e-014, -5.32907051820075e-015, 0, !- X,Y,Z Vertex 3 {m}
  4.9737991503207e-014, -5.32907051820075e-015, 3.048; !- X,Y,Z Vertex 4 {m}

OS:Surface,
  {11608b4f-2148-4de7-9618-f78413d0b38e}, !- Handle
  Surface 9,                              !- Name
  Wall,                                   !- Surface Type
  ,                                       !- Construction Name
  {8f04912d-ed57-4a14-9ff7-9dc3ec1d7a3f}, !- Space Name
  Surface,                                !- Outside Boundary Condition
  {d7ae4595-7829-4792-99f9-3d0da3f32407}, !- Outside Boundary Condition Object
  NoSun,                                  !- Sun Exposure
  NoWind,                                 !- Wind Exposure
  ,                                       !- View Factor to Ground
  ,                                       !- Number of Vertices
  4.57200000000005, 15.4976195036914, 3.048, !- X,Y,Z Vertex 1 {m}
  4.57200000000005, 15.4976195036914, 0,  !- X,Y,Z Vertex 2 {m}
  4.9737991503207e-014, 15.4976195036914, 0, !- X,Y,Z Vertex 3 {m}
  4.9737991503207e-014, 15.4976195036914, 3.048; !- X,Y,Z Vertex 4 {m}

OS:Surface,
  {ec733099-f8c0-427b-a61a-142ffe46f10b}, !- Handle
  Surface 10,                             !- Name
  Wall,                                   !- Surface Type
  ,                                       !- Construction Name
  {8f04912d-ed57-4a14-9ff7-9dc3ec1d7a3f}, !- Space Name
  Surface,                                !- Outside Boundary Condition
  {be24ed8d-3d27-4c12-a5ad-f2afec0b3495}, !- Outside Boundary Condition Object
  NoSun,                                  !- Sun Exposure
  NoWind,                                 !- Wind Exposure
  ,                                       !- View Factor to Ground
  ,                                       !- Number of Vertices
  4.57200000000005, -5.32907051820075e-015, 3.048, !- X,Y,Z Vertex 1 {m}
  4.57200000000005, -5.32907051820075e-015, 0, !- X,Y,Z Vertex 2 {m}
  4.57200000000005, 15.4976195036914, 0,  !- X,Y,Z Vertex 3 {m}
  4.57200000000005, 15.4976195036914, 3.048; !- X,Y,Z Vertex 4 {m}

OS:Surface,
  {62645051-771b-4611-ae03-a33a72c1fcf1}, !- Handle
  Surface 11,                             !- Name
  Wall,                                   !- Surface Type
  ,                                       !- Construction Name
  {8f04912d-ed57-4a14-9ff7-9dc3ec1d7a3f}, !- Space Name
  Surface,                                !- Outside Boundary Condition
  {47be34d2-443f-402e-9b72-239a7b6d178e}, !- Outside Boundary Condition Object
  NoSun,                                  !- Sun Exposure
  NoWind,                                 !- Wind Exposure
  ,                                       !- View Factor to Ground
  ,                                       !- Number of Vertices
  4.9737991503207e-014, -5.32907051820075e-015, 3.048, !- X,Y,Z Vertex 1 {m}