
OS:Version,
  {3968def2-716a-4146-8826-0a3a34ae57e4}, !- Handle
  2.7.2;                                  !- Version Identifier

OS:SpaceType,
  {fca20af7-6982-422a-a595-38da3affba73}, !- Handle
  LargeHotel Banquet,                     !- Name
  ,                                       !- Default Construction Set Name
  ,                                       !- Default Schedule Set Name
  {e70c9f80-b564-4f78-8502-e4146cbb38bb}, !- Group Rendering Name
  ,                                       !- Design Specification Outdoor Air Object Name
  ,                                       !- Standards Template
  LargeHotel,                             !- Standards Building Type
  Banquet;                                !- Standards Space Type

OS:Rendering:Color,
  {e70c9f80-b564-4f78-8502-e4146cbb38bb}, !- Handle
  LargeHotel Banquet,                     !- Name
  230,                                    !- Rendering Red Value
  196,                                    !- Rendering Green Value
  120;                                    !- Rendering Blue Value

OS:SpaceType,
  {472fdf91-b509-451f-9701-440ca0bf8b68}, !- Handle
  LargeHotel Cafe,                        !- Name
  ,                                       !- Default Construction Set Name
  ,                                       !- Default Schedule Set Name
  {6c101bc3-6d0e-400c-bb92-e5de5b6948cf}, !- Group Rendering Name
  ,                                       !- Design Specification Outdoor Air Object Name
  ,                                       !- Standards Template
  LargeHotel,                             !- Standards Building Type
  Cafe;                                   !- Standards Space Type

OS:Rendering:Color,
  {6c101bc3-6d0e-400c-bb92-e5de5b6948cf}, !- Handle
  LargeHotel Cafe,                        !- Name
  31,                                     !- Rendering Red Value
  169,                                    !- Rendering Green Value
  34;                                     !- Rendering Blue Value

OS:SpaceType,
  {d2ebaa3d-c889-4c8d-82bf-0e8a97fbed9b}, !- Handle
  LargeHotel Corridor,                    !- Name
  ,                                       !- Default Construction Set Name
  ,                                       !- Default Schedule Set Name
  {c8892f20-98f8-4552-a3fa-f9a7847a5210}, !- Group Rendering Name
  ,                                       !- Design Specification Outdoor Air Object Name
  ,                                       !- Standards Template
  LargeHotel,                             !- Standards Building Type
  Corridor;                               !- Standards Space Type

OS:Rendering:Color,
  {c8892f20-98f8-4552-a3fa-f9a7847a5210}, !- Handle
  LargeHotel Corridor,                    !- Name
  169,                                    !- Rendering Red Value
  31,                                     !- Rendering Green Value
  31;                                     !- Rendering Blue Value

OS:SpaceType,
  {fb22459c-cab0-4447-b2b9-230e2d4a951a}, !- Handle
  LargeHotel GuestRoom,                   !- Name
  ,                                       !- Default Construction Set Name
  ,                                       !- Default Schedule Set Name
  {3a1fb3a5-e0e7-46ae-9753-065950ef5d92}, !- Group Rendering Name
  ,                                       !- Design Specification Outdoor Air Object Name
  ,                                       !- Standards Template
  LargeHotel,                             !- Standards Building Type
  GuestRoom;                              !- Standards Space Type

OS:Rendering:Color,
  {3a1fb3a5-e0e7-46ae-9753-065950ef5d92}, !- Handle
  LargeHotel GuestRoom,                   !- Name
  78,                                     !- Rendering Red Value
  167,                                    !- Rendering Green Value
  222;                                    !- Rendering Blue Value

OS:SpaceType,
  {c7472154-6e74-4437-b695-98ccf80ff2dd}, !- Handle
  LargeHotel Kitchen,                     !- Name
  ,                                       !- Default Construction Set Name
  ,                                       !- Default Schedule Set Name
  {b7bd91ae-4278-4198-ad11-fa0adbd86b8c}, !- Group Rendering Name
  ,                                       !- Design Specification Outdoor Air Object Name
  ,                                       !- Standards Template
  LargeHotel,                             !- Standards Building Type
  Kitchen;                                !- Standards Space Type

OS:Rendering:Color,
  {b7bd91ae-4278-4198-ad11-fa0adbd86b8c}, !- Handle
  LargeHotel Kitchen,                     !- Name
  78,                                     !- Rendering Red Value
  222,                                    !- Rendering Green Value
  133;                                    !- Rendering Blue Value

OS:SpaceType,
  {7fa7bda4-ae75-4357-a5d3-d2d4f00f2d96}, !- Handle
  LargeHotel Laundry,                     !- Name
  ,                                       !- Default Construction Set Name
  ,                                       !- Default Schedule Set Name
  {c729a2a5-855f-4d37-a28b-83f6925943c0}, !- Group Rendering Name
  ,                                       !- Design Specification Outdoor Air Object Name
  ,                                       !- Standards Template
  LargeHotel,                             !- Standards Building Type
  Laundry;                                !- Standards Space Type

OS:Rendering:Color,
  {c729a2a5-855f-4d37-a28b-83f6925943c0}, !- Handle
  LargeHotel Laundry,                     !- Name
  120,                                    !- Rendering Red Value
  149,                                    !- Rendering Green Value
  230;                                    !- Rendering Blue Value

OS:SpaceType,
  {b8be08ef-9866-4e1e-954b-be6e34baac9f}, !- Handle
  LargeHotel Lobby,                       !- Name
  ,                                       !- Default Construction Set Name
  ,                                       !- Default Schedule Set Name
  {3eac1596-e26c-4da7-be16-d30ed1378416}, !- Group Rendering Name
  ,                                       !- Design Specification Outdoor Air Object Name
  ,                                       !- Standards Template
  LargeHotel,                             !- Standards Building Type
  Lobby;                                  !- Standards Space Type

OS:Rendering:Color,
  {3eac1596-e26c-4da7-be16-d30ed1378416}, !- Handle
  LargeHotel Lobby,                       !- Name
  230,                                    !- Rendering Red Value
  157,                                    !- Rendering Green Value
  120;                                    !- Rendering Blue Value

OS:SpaceType,
  {a987f0d8-c666-44b5-98c5-5bd9813da3f8}, !- Handle
  LargeHotel Mechanical,                  !- Name
  ,                                       !- Default Construction Set Name
  ,                                       !- Default Schedule Set Name
  {73a7ca39-191a-4ffd-b714-edaac586aedd}, !- Group Rendering Name
  ,                                       !- Design Specification Outdoor Air Object Name
  ,                                       !- Standards Template
  LargeHotel,                             !- Standards Building Type
  Mechanical;                             !- Standards Space Type

OS:Rendering:Color,
  {73a7ca39-191a-4ffd-b714-edaac586aedd}, !- Handle
  LargeHotel Mechanical,                  !- Name
  41,                                     !- Rendering Red Value
  31,                                     !- Rendering Green Value
  169;                                    !- Rendering Blue Value

OS:SpaceType,
  {5a6240fb-66e7-485e-8429-b9e08cccefba}, !- Handle
  LargeHotel Retail,                      !- Name
  ,                                       !- Default Construction Set Name
  ,                                       !- Default Schedule Set Name
  {46e84a16-6c54-4241-a056-83441e10c14f}, !- Group Rendering Name
  ,                                       !- Design Specification Outdoor Air Object Name
  ,                                       !- Standards Template
  LargeHotel,                             !- Standards Building Type
  Retail;                                 !- Standards Space Type

OS:Rendering:Color,
  {46e84a16-6c54-4241-a056-83441e10c14f}, !- Handle
  LargeHotel Retail,                      !- Name
  171,                                    !- Rendering Red Value
  222,                                    !- Rendering Green Value
  78;                                     !- Rendering Blue Value

OS:SpaceType,
  {971df5ec-e320-4a7f-8040-9a03ad28f4e0}, !- Handle
  LargeHotel Storage,                     !- Name
  ,                                       !- Default Construction Set Name
  ,                                       !- Default Schedule Set Name
  {abc5688b-005d-40c0-a02d-31f71589637e}, !- Group Rendering Name
  ,                                       !- Design Specification Outdoor Air Object Name
  ,                                       !- Standards Template
  LargeHotel,                             !- Standards Building Type
  Storage;                                !- Standards Space Type

OS:Rendering:Color,
  {abc5688b-005d-40c0-a02d-31f71589637e}, !- Handle
  LargeHotel Storage,                     !- Name
  120,                                    !- Rendering Red Value
  149,                                    !- Rendering Green Value
  230;                                    !- Rendering Blue Value

OS:SpaceType,
  {d5abf4cb-e912-4cb8-ae8d-e43698907854}, !- Handle
  FullServiceRestaurant Dining,           !- Name
  ,                                       !- Default Construction Set Name
  ,                                       !- Default Schedule Set Name
  {13d0493d-eaf9-404e-a94f-ff69942ebeea}, !- Group Rendering Name
  ,                                       !- Design Specification Outdoor Air Object Name
  ,                                       !- Standards Template
  FullServiceRestaurant,                  !- Standards Building Type
  Dining;                                 !- Standards Space Type

OS:Rendering:Color,
  {13d0493d-eaf9-404e-a94f-ff69942ebeea}, !- Handle
  FullServiceRestaurant Dining,           !- Name
  31,                                     !- Rendering Red Value
  169,                                    !- Rendering Green Value
  34;                                     !- Rendering Blue Value

OS:SpaceType,
  {57963c0d-f07b-4b48-854d-501e71dabf3d}, !- Handle
  FullServiceRestaurant Kitchen,          !- Name
  ,                                       !- Default Construction Set Name
  ,                                       !- Default Schedule Set Name
  {38e99185-9a0e-457e-9fb8-0d0e3b9c9706}, !- Group Rendering Name
  ,                                       !- Design Specification Outdoor Air Object Name
  ,                                       !- Standards Template
  FullServiceRestaurant,                  !- Standards Building Type
  Kitchen;                                !- Standards Space Type

OS:Rendering:Color,
  {38e99185-9a0e-457e-9fb8-0d0e3b9c9706}, !- Handle
  FullServiceRestaurant Kitchen,          !- Name
  78,                                     !- Rendering Red Value
  222,                                    !- Rendering Green Value
  133;                                    !- Rendering Blue Value

OS:Building,
  {c8e186f5-97da-4ef8-9b6e-430dd2599a85}, !- Handle
  90.1-2004|LargeHotel|FullServiceRestaurant, !- Name
  ,                                       !- Building Sector Type
  ,                                       !- North Axis {deg}
  ,                                       !- Nominal Floor to Floor Height {m}
  ,                                       !- Space Type Name
  ,                                       !- Default Construction Set Name
  ;                                       !- Default Schedule Set Name

OS:Site,
  {80f2dc32-e3b5-433d-b9d0-195562da15ed}, !- Handle
  Site 1,                                 !- Name
  ,                                       !- Latitude {deg}
  ,                                       !- Longitude {deg}
  ,                                       !- Time Zone {hr}
  ,                                       !- Elevation {m}
  ;                                       !- Terrain

OS:BuildingStory,
  {597edc52-1262-42c0-b96e-84998dc90c19}, !- Handle
  Story Ground,                           !- Name
  0,                                      !- Nominal Z Coordinate {m}
  3.048,                                  !- Nominal Floor to Floor Height {m}
  ,                                       !- Default Construction Set Name
  ,                                       !- Default Schedule Set Name
  ;                                       !- Group Rendering Name

OS:Space,
  {0fa723e9-400a-4c31-8e76-c46b8cdea5bf}, !- Handle
  FullServiceRestaurant Kitchen A end_a - Story Ground, !- Name
  {57963c0d-f07b-4b48-854d-501e71dabf3d}, !- Space Type Name
  ,                                       !- Default Construction Set Name
  ,                                       !- Default Schedule Set Name
  -0,                                     !- Direction of Relative North {deg}
  -24.9838407775906,                      !- X Origin {m}
  -11.6203910593445,                      !- Y Origin {m}
  0,                                      !- Z Origin {m}
  {597edc52-1262-42c0-b96e-84998dc90c19}, !- Building Story Name
  {9af679ec-343b-42ce-96de-1c6758febc3a}; !- Thermal Zone Name

OS:Surface,
  {36ed2209-509e-4d0a-aa0a-5f2dfd35083f}, !- Handle
  Surface 1,                              !- Name
  Floor,                                  !- Surface Type
  ,                                       !- Construction Name
  {0fa723e9-400a-4c31-8e76-c46b8cdea5bf}, !- Space Name
  Ground,                                 !- Outside Boundary Condition
  ,                                       !- Outside Boundary Condition Object
  NoSun,                                  !- Sun Exposure
  NoWind,                                 !- Wind Exposure
  ,                                       !- View Factor to Ground
  ,                                       !- Number of Vertices
  2.1316282072803e-014, -2.48689957516035e-014, 0, !- X,Y,Z Vertex 1 {m}
  2.1316282072803e-014, 4.572, 0,         !- X,Y,Z Vertex 2 {m}
  4.57200000000002, 4.572, 0,             !- X,Y,Z Vertex 3 {m}
  4.57200000000002, -2.48689957516035e-014, 0; !- X,Y,Z Vertex 4 {m}

OS:Surface,
  {6a7489a7-9933-469f-9821-7fd6fbb43b50}, !- Handle
  Surface 2,                              !- Name
  Wall,                                   !- Surface Type
  ,                                       !- Construction Name
  {0fa723e9-400a-4c31-8e76-c46b8cdea5bf}, !- Space Name
  Adiabatic,                              !- Outside Boundary Condition
  ,                                       !- Outside Boundary Condition Object
  NoSun,                                  !- Sun Exposure
  NoWind,                                 !- Wind Exposure
  ,                                       !- View Factor to Ground
  ,                                       !- Number of Vertices
  2.1316282072803e-014, 4.572, 3.048,     !- X,Y,Z Vertex 1 {m}
  2.1316282072803e-014, 4.572, 0,         !- X,Y,Z Vertex 2 {m}
  2.1316282072803e-014, -2.48689957516035e-014, 0, !- X,Y,Z Vertex 3 {m}
  2.1316282072803e-014, -2.48689957516035e-014, 3.048; !- X,Y,Z Vertex 4 {m}

OS:Surface,
  {a02d8440-bf98-42f7-a89b-9a8a19598221}, !- Handle
  Surface 3,                              !- Name
  Wall,                                   !- Surface Type
  ,                                       !- Construction Name
  {0fa723e9-400a-4c31-8e76-c46b8cdea5bf}, !- Space Name
  Surface,                                !- Outside Boundary Condition
  {9516ab97-2cd4-403d-9ec3-47f10676f196}, !- Outside Boundary Condition Object
  NoSun,                                  !- Sun Exposure
  NoWind,                                 !- Wind Exposure
  ,                                       !- View Factor to Ground
  ,                                       !- Number of Vertices
  4.57200000000002, 4.572, 3.048,         !- X,Y,Z Vertex 1 {m}
  4.57200000000002, 4.572, 0,             !- X,Y,Z Vertex 2 {m}
  2.1316282072803e-014, 4.572, 0,         !- X,Y,Z Vertex 3 {m}
  2.1316282072803e-014, 4.572, 3.048;     !- X,Y,Z Vertex 4 {m}

OS:Surface,
  {3e7e4c7c-e11c-456c-9c3b-63d2efe89ed0}, !- Handle
  Surface 4,                              !- Name
  Wall,                                   !- Surface Type
  ,                                       !- Construction Name
  {0fa723e9-400a-4c31-8e76-c46b8cdea5bf}, !- Space Name
  Surface,                                !- Outside Boundary Condition
  {16a12025-7b88-4665-991c-5e230e985739}, !- Outside Boundary Condition Object
  NoSun,                                  !- Sun Exposure
  NoWind,                                 !- Wind Exposure
  ,                                       !- View Factor to Ground
  ,                                       !- Number of Vertices
  4.57200000000002, -2.48689957516035e-014, 3.048, !- X,Y,Z Vertex 1 {m}
  4.57200000000002, -2.48689957516035e-014, 0, !- X,Y,Z Vertex 2 {m}
  4.57200000000002, 4.572, 0,             !- X,Y,Z Vertex 3 {m}
  4.57200000000002, 4.572, 3.048;         !- X,Y,Z Vertex 4 {m}

OS:Surface,
  {16dc1a90-eebf-469e-8f15-e3a4dea324e5}, !- Handle
  Surface 5,                              !- Name
  Wall,                                   !- Surface Type
  ,                                       !- Construction Name
  {0fa723e9-400a-4c31-8e76-c46b8cdea5bf}, !- Space Name
  Outdoors,                               !- Outside Boundary Condition
  ,                                       !- Outside Boundary Condition Object
  SunExposed,                             !- Sun Exposure
  WindExposed,                            !- Wind Exposure
  ,                                       !- View Factor to Ground
  ,                                       !- Number of Vertices
  2.1316282072803e-014, -2.48689957516035e-014, 3.048, !- X,Y,Z Vertex 1 {m}
  2.1316282072803e-014, -2.48689957516035e-014, 0, !- X,Y,Z Vertex 2 {m}
  4.57200000000002, -2.48689957516035e-014, 0, !- X,Y,Z Vertex 3 {m}
  4.57200000000002, -2.48689957516035e-014, 3.048; !- X,Y,Z Vertex 4 {m}

OS:Surface,
  {e66ede0f-f7c6-4668-8a9d-fea130d179fc}, !- Handle
  Surface 6,                              !- Name
  RoofCeiling,                            !- Surface Type
  ,                                       !- Construction Name
  {0fa723e9-400a-4c31-8e76-c46b8cdea5bf}, !- Space Name
  Adiabatic,                              !- Outside Boundary Condition
  ,                                       !- Outside Boundary Condition Object
  NoSun,                                  !- Sun Exposure
  NoWind,                                 !- Wind Exposure
  ,                                       !- View Factor to Ground
  ,                                       !- Number of Vertices
  4.57200000000002, -2.48689957516035e-014, 3.048, !- X,Y,Z Vertex 1 {m}
  4.57200000000002, 4.572, 3.048,         !- X,Y,Z Vertex 2 {m}
  2.1316282072803e-014, 4.572, 3.048,     !- X,Y,Z Vertex 3 {m}
  2.1316282072803e-014, -2.48689957516035e-014, 3.048; !- X,Y,Z Vertex 4 {m}

OS:ThermalZone,
  {9af679ec-343b-42ce-96de-1c6758febc3a}, !- Handle
  Zone FullServiceRestaurant Kitchen A end_a - Story Ground, !- Name
  1,                                      !- Multiplier
  ,                                       !- Ceiling Height {m}
  ,                                       !- Volume {m3}
  ,                                       !- Floor Area {m2}
  ,                                       !- Zone Inside Convection Algorithm
  ,                                       !- Zone Outside Convection Algorithm
  ,                                       !- Zone Conditioning Equipment List Name
  {0b43fc96-864a-46c2-8353-050c557f44e5}, !- Zone Air Inlet Port List
  {65e73463-4717-42f1-aeee-b65d360c61f5}, !- Zone Air Exhaust Port List
  {b6de7a1e-bb1f-4f72-86ed-9eef8cf05be3}, !- Zone Air Node Name
  {4a4d5b2e-41cd-48b9-814f-46a5d7af9e8f}, !- Zone Return Air Port List
  ,                                       !- Primary Daylighting Control Name
  ,                                       !- Fraction of Zone Controlled by Primary Daylighting Control
  ,                                       !- Secondary Daylighting Control Name
  ,                                       !- Fraction of Zone Controlled by Secondary Daylighting Control
  ,                                       !- Illuminance Map Name
  ,                                       !- Group Rendering Name
  ,                                       !- Thermostat Name
  No;                                     !- Use Ideal Air Loads

OS:Node,
  {17955197-187c-4844-b55e-1399d87f22f0}, !- Handle
  Node 1,                                 !- Name
  {b6de7a1e-bb1f-4f72-86ed-9eef8cf05be3}, !- Inlet Port
  ;                                       !- Outlet Port

OS:Connection,
  {b6de7a1e-bb1f-4f72-86ed-9eef8cf05be3}, !- Handle
  {37278cf1-3b34-4f8a-9a15-22a68c274c31}, !- Name
  {9af679ec-343b-42ce-96de-1c6758febc3a}, !- Source Object
  11,                                     !- Outlet Port
  {17955197-187c-4844-b55e-1399d87f22f0}, !- Target Object
  2;                                      !- Inlet Port

OS:PortList,
  {0b43fc96-864a-46c2-8353-050c557f44e5}, !- Handle
  {718fc181-41bf-4f64-b151-75d969e32dc4}, !- Name
  {9af679ec-343b-42ce-96de-1c6758febc3a}; !- HVAC Component

OS:PortList,
  {65e73463-4717-42f1-aeee-b65d360c61f5}, !- Handle
  {eef6129c-926b-4fa4-9494-18f96400bf4f}, !- Name
  {9af679ec-343b-42ce-96de-1c6758febc3a}; !- HVAC Component

OS:PortList,
  {4a4d5b2e-41cd-48b9-814f-46a5d7af9e8f}, !- Handle
  {12a54dda-b957-4445-839c-d5fa83aaf3d7}, !- Name
  {9af679ec-343b-42ce-96de-1c6758febc3a}; !- HVAC Component

OS:Sizing:Zone,
  {fb5e58b7-04cb-4bf8-948b-bd15987f7035}, !- Handle
  {9af679ec-343b-42ce-96de-1c6758febc3a}, !- Zone or ZoneList Name
  SupplyAirTemperature,                   !- Zone Cooling Design Supply Air Temperature Input Method
  14,                                     !- Zone Cooling Design Supply Air Temperature {C}
  11.11,                                  !- Zone Cooling Design Supply Air Temperature Difference {deltaC}
  SupplyAirTemperature,                   !- Zone Heating Design Supply Air Temperature Input Method
  40,                                     !- Zone Heating Design Supply Air Temperature {C}
  11.11,                                  !- Zone Heating Design Supply Air Temperature Difference {deltaC}
  0.0085,                                 !- Zone Cooling Design Supply Air Humidity Ratio {kg-H2O/kg-air}
  0.008,                                  !- Zone Heating Design Supply Air Humidity Ratio {kg-H2O/kg-air}
  ,                                       !- Zone Heating Sizing Factor
  ,                                       !- Zone Cooling Sizing Factor
  DesignDay,                              !- Cooling Design Air Flow Method
  ,                                       !- Cooling Design Air Flow Rate {m3/s}
  ,                                       !- Cooling Minimum Air Flow per Zone Floor Area {m3/s-m2}
  ,                                       !- Cooling Minimum Air Flow {m3/s}
  ,                                       !- Cooling Minimum Air Flow Fraction
  DesignDay,                              !- Heating Design Air Flow Method
  ,                                       !- Heating Design Air Flow Rate {m3/s}
  ,                                       !- Heating Maximum Air Flow per Zone Floor Area {m3/s-m2}
  ,                                       !- Heating Maximum Air Flow {m3/s}
  ,                                       !- Heating Maximum Air Flow Fraction
  ,                                       !- Design Zone Air Distribution Effectiveness in Cooling Mode
  ,                                       !- Design Zone Air Distribution Effectiveness in Heating Mode
  No,                                     !- Account for Dedicated Outdoor Air System
  NeutralSupplyAir,                       !- Dedicated Outdoor Air System Control Strategy
  autosize,                               !- Dedicated Outdoor Air Low Setpoint Temperature for Design {C}
  autosize;                               !- Dedicated Outdoor Air High Setpoint Temperature for Design {C}

OS:ZoneHVAC:EquipmentList,
  {5fa4314d-212d-4081-98de-386868c711c2}, !- Handle
  Zone HVAC Equipment List 1,             !- Name
  {9af679ec-343b-42ce-96de-1c6758febc3a}; !- Thermal Zone

OS:Space,
  {1da59b77-e7e7-4309-975b-ad00b41740b7}, !- Handle
  FullServiceRestaurant Kitchen B end_a - Story Ground, !- Name
  {57963c0d-f07b-4b48-854d-501e71dabf3d}, !- Space Type Name
  ,                                       !- Default Construction Set Name
  ,                                       !- Default Schedule Set Name
  -0,                                     !- Direction of Relative North {deg}
  -24.9838407775906,                      !- X Origin {m}
  -7.04839105934448,                      !- Y Origin {m}
  0,                                      !- Z Origin {m}
  {597edc52-1262-42c0-b96e-84998dc90c19}, !- Building Story Name
  {1bba06d3-4714-45de-9169-eb62cfb3a9d9}; !- Thermal Zone Name

OS:Surface,
  {6bc834e2-a33b-4977-90d1-09d68b80aa2f}, !- Handle
  Surface 7,                              !- Name
  Floor,                                  !- Surface Type
  ,                                       !- Construction Name
  {1da59b77-e7e7-4309-975b-ad00b41740b7}, !- Space Name
  Ground,                                 !- Outside Boundary Condition
  ,                                       !- Outside Boundary Condition Object
  NoSun,                                  !- Sun Exposure
  NoWind,                                 !- Wind Exposure
  ,                                       !- View Factor to Ground
  ,                                       !- Number of Vertices
  2.1316282072803e-014, -4.44089209850063e-015, 0, !- X,Y,Z Vertex 1 {m}
  2.1316282072803e-014, 14.096782118689, 0, !- X,Y,Z Vertex 2 {m}
  4.57200000000002, 14.096782118689, 0,   !- X,Y,Z Vertex 3 {m}
  4.57200000000002, -4.44089209850063e-015, 0; !- X,Y,Z Vertex 4 {m}

OS:Surface,
  {dcb1fc80-21aa-44be-8399-a625640adb31}, !- Handle
  Surface 8,                              !- Name
  Wall,                                   !- Surface Type
  ,                                       !- Construction Name
  {1da59b77-e7e7-4309-975b-ad00b41740b7}, !- Space Name
  Adiabatic,                              !- Outside Boundary Condition
  ,                                       !- Outside Boundary Condition Object
  NoSun,                                  !- Sun Exposure
  NoWind,                                 !- Wind Exposure
  ,                                       !- View Factor to Ground
  ,                                       !- Number of Vertices
  2.1316282072803e-014, 14.096782118689, 3.048, !- X,Y,Z Vertex 1 {m}
  2.1316282072803e-014, 14.096782118689, 0, !- X,Y,Z Vertex 2 {m}
  2.1316282072803e-014, -4.44089209850063e-015, 0, !- X,Y,Z Vertex 3 {m}
  2.1316282072803e-014, -4.44089209850063e-015, 3.048; !- X,Y,Z Vertex 4 {m}

OS:Surface,
  {93465507-3f4f-433d-8626-a24072677abc}, !- Handle
  Surface 9,                              !- Name
  Wall,                                   !- Surface Type
  ,                                       !- Construction Name
  {1da59b77-e7e7-4309-975b-ad00b41740b7}, !- Space Name
  Surface,                                !- Outside Boundary Condition
  {56d169b8-d1a2-46a7-bb2b-eaa387ac974d}, !- Outside Boundary Condition Object
  NoSun,                                  !- Sun Exposure
  NoWind,                                 !- Wind Exposure
  ,                                       !- View Factor to Ground
  ,                                       !- Number of Vertices
  4.57200000000002, 14.096782118689, 3.048, !- X,Y,Z Vertex 1 {m}
  4.57200000000002, 14.096782118689, 0,   !- X,Y,Z Vertex 2 {m}
  2.1316282072803e-014, 14.096782118689, 0, !- X,Y,Z Vertex 3 {m}
  2.1316282072803e-014, 14.096782118689, 3.048; !- X,Y,Z Vertex 4 {m}

OS:Surface,
  {674d205e-a5de-4503-8cbc-0bb1061ae108}, !- Handle
  Surface 10,                             !- Name
  Wall,                                   !- Surface Type
  ,                                       !- Construction Name
  {1da59b77-e7e7-4309-975b-ad00b41740b7}, !- Space Name
  Surface,                                !- Outside Boundary Condition
  {cfbe7b0a-02ac-43d7-9b89-9a118b37685e}, !- Outside Boundary Condition Object
  NoSun,                                  !- Sun Exposure
  NoWind,                                 !- Wind Exposure
  ,                                       !- View Factor to Ground
  ,                                       !- Number of Vertices
  4.57200000000002, -4.44089209850063e-015, 3.048, !- X,Y,Z Vertex 1 {m}
  4.57200000000002, -4.44089209850063e-015, 0, !- X,Y,Z Vertex 2 {m}
  4.57200000000002, 14.096782118689, 0,   !- X,Y,Z Vertex 3 {m}
  4.57200000000002, 14.096782118689, 3.048; !- X,Y,Z Vertex 4 {m}

OS:Surface,
  {9516ab97-2cd4-403d-9ec3-47f10676f196}, !- Handle
  Surface 11,                             !- Name
  Wall,                                   !- Surface Type
  ,                                       !- Construction Name
  {1da59b77-e7e7-4309-975b-ad00b41740b7}, !- Space Name
  Surface,                                !- Outside Boundary Condition
  {a02d8440-bf98-42f7-a89b-9a8a19598221}, !- Outside Boundary Condition Object
  NoSun,                                  !- Sun Exposure
  NoWind,                                 !- Wind Exposure
  ,                                       !- View Factor to Ground
  ,                                       !- Number of Vertices
  2.1316282072803e-014, -4.44089209850063e-015, 3.048, !- X,Y,Z Vertex 1 {m}