
OS:Version,
  {7574de81-c2c8-4d39-bba5-e55fdae7d83a}, !- Handle
  2.7.2;                                  !- Version Identifier

OS:SpaceType,
  {551b3ecc-8653-4fb5-bbf1-ecb62b603d75}, !- Handle
  LargeHotel Banquet,                     !- Name
  ,                                       !- Default Construction Set Name
  ,                                       !- Default Schedule Set Name
  {559a9131-3201-4a0d-9aeb-b47635cf2931}, !- Group Rendering Name
  ,                                       !- Design Specification Outdoor Air Object Name
  ,                                       !- Standards Template
  LargeHotel,                             !- Standards Building Type
  Banquet;                                !- Standards Space Type

OS:Rendering:Color,
  {559a9131-3201-4a0d-9aeb-b47635cf2931}, !- Handle
  LargeHotel Banquet,                     !- Name
  230,                                    !- Rendering Red Value
  196,                                    !- Rendering Green Value
  120;                                    !- Rendering Blue Value

OS:SpaceType,
  {e20b85bf-1ba0-44d1-a617-1a946873d15a}, !- Handle
  LargeHotel Cafe,                        !- Name
  ,                                       !- Default Construction Set Name
  ,                                       !- Default Schedule Set Name
  {e9676c30-7b1e-4312-b13d-d1384bef4408}, !- Group Rendering Name
  ,                                       !- Design Specification Outdoor Air Object Name
  ,                                       !- Standards Template
  LargeHotel,                             !- Standards Building Type
  Cafe;                                   !- Standards Space Type

OS:Rendering:Color,
  {e9676c30-7b1e-4312-b13d-d1384bef4408}, !- Handle
  LargeHotel Cafe,                        !- Name
  31,                                     !- Rendering Red Value
  169,                                    !- Rendering Green Value
  34;                                     !- Rendering Blue Value

OS:SpaceType,
  {b9c5f952-e2e1-40aa-8319-fed078fdd94a}, !- Handle
  LargeHotel Corridor,                    !- Name
  ,                                       !- Default Construction Set Name
  ,                                       !- Default Schedule Set Name
  {e8b99e6b-d641-4c57-8c6e-e7f1fdf83dbc}, !- Group Rendering Name
  ,                                       !- Design Specification Outdoor Air Object Name
  ,                                       !- Standards Template
  LargeHotel,                             !- Standards Building Type
  Corridor;                               !- Standards Space Type

OS:Rendering:Color,
  {e8b99e6b-d641-4c57-8c6e-e7f1fdf83dbc}, !- Handle
  LargeHotel Corridor,                    !- Name
  169,                                    !- Rendering Red Value
  31,                                     !- Rendering Green Value
  31;                                     !- Rendering Blue Value

OS:SpaceType,
  {2b16d4db-6bbd-4720-a4dc-2b0382c37a10}, !- Handle
  LargeHotel GuestRoom,                   !- Name
  ,                                       !- Default Construction Set Name
  ,                                       !- Default Schedule Set Name
  {1d3e8208-60c3-4f81-bc33-4510ac259f9e}, !- Group Rendering Name
  ,                                       !- Design Specification Outdoor Air Object Name
  ,                                       !- Standards Template
  LargeHotel,                             !- Standards Building Type
  GuestRoom;                              !- Standards Space Type

OS:Rendering:Color,
  {1d3e8208-60c3-4f81-bc33-4510ac259f9e}, !- Handle
  LargeHotel GuestRoom,                   !- Name
  78,                                     !- Rendering Red Value
  167,                                    !- Rendering Green Value
  222;                                    !- Rendering Blue Value

OS:SpaceType,
  {ba9927b6-06cc-4f2c-b5b7-225203844451}, !- Handle
  LargeHotel Kitchen,                     !- Name
  ,                                       !- Default Construction Set Name
  ,                                       !- Default Schedule Set Name
  {fb34a3ec-c4a0-44e0-bbd5-61cea38064a3}, !- Group Rendering Name
  ,                                       !- Design Specification Outdoor Air Object Name
  ,                                       !- Standards Template
  LargeHotel,                             !- Standards Building Type
  Kitchen;                                !- Standards Space Type

OS:Rendering:Color,
  {fb34a3ec-c4a0-44e0-bbd5-61cea38064a3}, !- Handle
  LargeHotel Kitchen,                     !- Name
  78,                                     !- Rendering Red Value
  222,                                    !- Rendering Green Value
  133;                                    !- Rendering Blue Value

OS:SpaceType,
  {118e12f1-c923-4807-ae94-32671099e6bf}, !- Handle
  LargeHotel Laundry,                     !- Name
  ,                                       !- Default Construction Set Name
  ,                                       !- Default Schedule Set Name
  {b5425bb1-7258-4b86-b3bd-89b7f0fa7452}, !- Group Rendering Name
  ,                                       !- Design Specification Outdoor Air Object Name
  ,                                       !- Standards Template
  LargeHotel,                             !- Standards Building Type
  Laundry;                                !- Standards Space Type

OS:Rendering:Color,
  {b5425bb1-7258-4b86-b3bd-89b7f0fa7452}, !- Handle
  LargeHotel Laundry,                     !- Name
  120,                                    !- Rendering Red Value
  149,                                    !- Rendering Green Value
  230;                                    !- Rendering Blue Value

OS:SpaceType,
  {4916e1e2-f0f5-410b-83d0-dd3b003a589c}, !- Handle
  LargeHotel Lobby,                       !- Name
  ,                                       !- Default Construction Set Name
  ,                                       !- Default Schedule Set Name
  {f1650862-a695-4c8c-bed7-7676bf098faf}, !- Group Rendering Name
  ,                                       !- Design Specification Outdoor Air Object Name
  ,                                       !- Standards Template
  LargeHotel,                             !- Standards Building Type
  Lobby;                                  !- Standards Space Type

OS:Rendering:Color,
  {f1650862-a695-4c8c-bed7-7676bf098faf}, !- Handle
  LargeHotel Lobby,                       !- Name
  230,                                    !- Rendering Red Value
  157,                                    !- Rendering Green Value
  120;                                    !- Rendering Blue Value

OS:SpaceType,
  {180ecad9-ea8d-4aed-ae99-ba54addc797a}, !- Handle
  LargeHotel Mechanical,                  !- Name
  ,                                       !- Default Construction Set Name
  ,                                       !- Default Schedule Set Name
  {142e56f7-29e6-41fa-8e99-64682cbc99e1}, !- Group Rendering Name
  ,                                       !- Design Specification Outdoor Air Object Name
  ,                                       !- Standards Template
  LargeHotel,                             !- Standards Building Type
  Mechanical;                             !- Standards Space Type

OS:Rendering:Color,
  {142e56f7-29e6-41fa-8e99-64682cbc99e1}, !- Handle
  LargeHotel Mechanical,                  !- Name
  41,                                     !- Rendering Red Value
  31,                                     !- Rendering Green Value
  169;                                    !- Rendering Blue Value

OS:SpaceType,
  {a7c49671-bc78-4285-82c5-0e9ea272c375}, !- Handle
  LargeHotel Retail,                      !- Name
  ,                                       !- Default Construction Set Name
  ,                                       !- Default Schedule Set Name
  {5f647b18-20ab-4cb3-9910-0040ea654064}, !- Group Rendering Name
  ,                                       !- Design Specification Outdoor Air Object Name
  ,                                       !- Standards Template
  LargeHotel,                             !- Standards Building Type
  Retail;                                 !- Standards Space Type

OS:Rendering:Color,
  {5f647b18-20ab-4cb3-9910-0040ea654064}, !- Handle
  LargeHotel Retail,                      !- Name
  171,                                    !- Rendering Red Value
  222,                                    !- Rendering Green Value
  78;                                     !- Rendering Blue Value

OS:SpaceType,
  {d47a4377-078d-41bf-94bf-06a2a74df5a6}, !- Handle
  LargeHotel Storage,                     !- Name
  ,                                       !- Default Construction Set Name
  ,                                       !- Default Schedule Set Name
  {f2980a32-c7e2-45a3-b6d7-475c5cee83f3}, !- Group Rendering Name
  ,                                       !- Design Specification Outdoor Air Object Name
  ,                                       !- Standards Template
  LargeHotel,                             !- Standards Building Type
  Storage;                                !- Standards Space Type

OS:Rendering:Color,
  {f2980a32-c7e2-45a3-b6d7-475c5cee83f3}, !- Handle
  LargeHotel Storage,                     !- Name
  120,                                    !- Rendering Red Value
  149,                                    !- Rendering Green Value
  230;                                    !- Rendering Blue Value

OS:SpaceType,
  {461d6211-6b9f-4a60-b567-6321d1d3695f}, !- Handle
  FullServiceRestaurant Dining,           !- Name
  ,                                       !- Default Construction Set Name
  ,                                       !- Default Schedule Set Name
  {4977f9b9-300c-425d-9ec4-3c8e64d5922e}, !- Group Rendering Name
  ,                                       !- Design Specification Outdoor Air Object Name
  ,                                       !- Standards Template
  FullServiceRestaurant,                  !- Standards Building Type
  Dining;                                 !- Standards Space Type

OS:Rendering:Color,
  {4977f9b9-300c-425d-9ec4-3c8e64d5922e}, !- Handle
  FullServiceRestaurant Dining,           !- Name
  31,                                     !- Rendering Red Value
  169,                                    !- Rendering Green Value
  34;                                     !- Rendering Blue Value

OS:SpaceType,
  {a31bddb3-7573-4309-a3ac-1efc8c2cccce}, !- Handle
  FullServiceRestaurant Kitchen,          !- Name
  ,                                       !- Default Construction Set Name
  ,                                       !- Default Schedule Set Name
  {44d6374e-483b-46f0-acc6-ddcb513dbaed}, !- Group Rendering Name
  ,                                       !- Design Specification Outdoor Air Object Name
  ,                                       !- Standards Template
  FullServiceRestaurant,                  !- Standards Building Type
  Kitchen;                                !- Standards Space Type

OS:Rendering:Color,
  {44d6374e-483b-46f0-acc6-ddcb513dbaed}, !- Handle
  FullServiceRestaurant Kitchen,          !- Name
  78,                                     !- Rendering Red Value
  222,                                    !- Rendering Green Value
  133;                                    !- Rendering Blue Value

OS:Building,
  {573d79c0-a61b-4826-bae3-bea93982bfbb}, !- Handle
  90.1-2004|LargeHotel|FullServiceRestaurant, !- Name
  ,                                       !- Building Sector Type
  ,                                       !- North Axis {deg}
  ,                                       !- Nominal Floor to Floor Height {m}
  ,                                       !- Space Type Name
  ,                                       !- Default Construction Set Name
  ;                                       !- Default Schedule Set Name

OS:Site,
  {be323493-8c06-4ddb-8440-43692255db2b}, !- Handle
  Site 1,                                 !- Name
  ,                                       !- Latitude {deg}
  ,                                       !- Longitude {deg}
  ,                                       !- Time Zone {hr}
  ,                                       !- Elevation {m}
  ;                                       !- Terrain

OS:BuildingStory,
  {cd7c1bf9-82f2-49d4-9477-04622b9996ef}, !- Handle
  Story B1,                               !- Name
  -3.048,                                 !- Nominal Z Coordinate {m}
  3.048,                                  !- Nominal Floor to Floor Height {m}
  ,                                       !- Default Construction Set Name
  ,                                       !- Default Schedule Set Name
  ;                                       !- Group Rendering Name

OS:Space,
  {b1db3c62-f7ec-4c68-a1b4-78d54e818221}, !- Handle
  LargeHotel Cafe A end_a - Story B1,     !- Name
  {e20b85bf-1ba0-44d1-a617-1a946873d15a}, !- Space Type Name
  ,                                       !- Default Construction Set Name
  ,                                       !- Default Schedule Set Name
  -0,                                     !- Direction of Relative North {deg}
  -20.3992205733454,                      !- X Origin {m}
  -9.48800956899788,                      !- Y Origin {m}
  -3.048,                                 !- Z Origin {m}
  {cd7c1bf9-82f2-49d4-9477-04622b9996ef}, !- Building Story Name
  {fa3bb157-c470-40b5-9f8c-3c7d1f643579}; !- Thermal Zone Name

OS:Surface,
  {041b11b5-010f-4b36-986a-6baf16f90337}, !- Handle
  Surface 1,                              !- Name
  Floor,                                  !- Surface Type
  ,                                       !- Construction Name
  {b1db3c62-f7ec-4c68-a1b4-78d54e818221}, !- Space Name
  Ground,                                 !- Outside Boundary Condition
  ,                                       !- Outside Boundary Condition Object
  NoSun,                                  !- Sun Exposure
  NoWind,                                 !- Wind Exposure
  ,                                       !- View Factor to Ground
  ,                                       !- Number of Vertices
  4.61852778244065e-014, 0, 0,            !- X,Y,Z Vertex 1 {m}
  4.61852778244065e-014, 4.572, 0,        !- X,Y,Z Vertex 2 {m}
  4.57200000000005, 4.572, 0,             !- X,Y,Z Vertex 3 {m}
  4.57200000000005, 0, 0;                 !- X,Y,Z Vertex 4 {m}

OS:Surface,
  {cdba6b64-d398-4d47-95b6-252a34372a55}, !- Handle
  Surface 2,                              !- Name
  Wall,                                   !- Surface Type
  ,                                       !- Construction Name
  {b1db3c62-f7ec-4c68-a1b4-78d54e818221}, !- Space Name
  Ground,                                 !- Outside Boundary Condition
  ,                                       !- Outside Boundary Condition Object
  NoSun,                                  !- Sun Exposure
  NoWind,                                 !- Wind Exposure
  ,                                       !- View Factor to Ground
  ,                                       !- Number of Vertices
  4.61852778244065e-014, 4.572, 3.048,    !- X,Y,Z Vertex 1 {m}
  4.61852778244065e-014, 4.572, 0,        !- X,Y,Z Vertex 2 {m}
  4.61852778244065e-014, 0, 0,            !- X,Y,Z Vertex 3 {m}
  4.61852778244065e-014, 0, 3.048;        !- X,Y,Z Vertex 4 {m}

OS:Surface,
  {d6e2650f-beed-49a6-b63d-e2023d864a9d}, !- Handle
  Surface 3,                              !- Name
  Wall,                                   !- Surface Type
  ,                                       !- Construction Name
  {b1db3c62-f7ec-4c68-a1b4-78d54e818221}, !- Space Name
  Surface,                                !- Outside Boundary Condition
  {a0cf83d2-cb91-47d4-806c-72469ec8068b}, !- Outside Boundary Condition Object
  NoSun,                                  !- Sun Exposure
  NoWind,                                 !- Wind Exposure
  ,                                       !- View Factor to Ground
  ,                                       !- Number of Vertices
  4.57200000000005, 4.572, 3.048,         !- X,Y,Z Vertex 1 {m}
  4.57200000000005, 4.572, 0,             !- X,Y,Z Vertex 2 {m}
  4.61852778244065e-014, 4.572, 0,        !- X,Y,Z Vertex 3 {m}
  4.61852778244065e-014, 4.572, 3.048;    !- X,Y,Z Vertex 4 {m}

OS:Surface,
  {e047646a-c280-44f6-9bb5-1c015e680718}, !- Handle
  Surface 4,                              !- Name
  Wall,                                   !- Surface Type
  ,                                       !- Construction Name
  {b1db3c62-f7ec-4c68-a1b4-78d54e818221}, !- Space Name
  Surface,                                !- Outside Boundary Condition
  {2e3cc66b-be99-45bc-8746-64bfb497ae95}, !- Outside Boundary Condition Object
  NoSun,                                  !- Sun Exposure
  NoWind,                                 !- Wind Exposure
  ,                                       !- View Factor to Ground
  ,                                       !- Number of Vertices
  4.57200000000005, 0, 3.048,             !- X,Y,Z Vertex 1 {m}
  4.57200000000005, 0, 0,                 !- X,Y,Z Vertex 2 {m}
  4.57200000000005, 4.572, 0,             !- X,Y,Z Vertex 3 {m}
  4.57200000000005, 4.572, 3.048;         !- X,Y,Z Vertex 4 {m}

OS:Surface,
  {da1a9288-f877-4471-8c90-f259a51dc56d}, !- Handle
  Surface 5,                              !- Name
  Wall,                                   !- Surface Type
  ,                                       !- Construction Name
  {b1db3c62-f7ec-4c68-a1b4-78d54e818221}, !- Space Name
  Ground,                                 !- Outside Boundary Condition
  ,                                       !- Outside Boundary Condition Object
  NoSun,                                  !- Sun Exposure
  NoWind,                                 !- Wind Exposure
  ,                                       !- View Factor to Ground
  ,                                       !- Number of Vertices
  4.61852778244065e-014, 0, 3.048,        !- X,Y,Z Vertex 1 {m}
  4.61852778244065e-014, 0, 0,            !- X,Y,Z Vertex 2 {m}
  4.57200000000005, 0, 0,                 !- X,Y,Z Vertex 3 {m}
  4.57200000000005, 0, 3.048;             !- X,Y,Z Vertex 4 {m}

OS:Surface,
  {1519a14c-5403-4b2d-9547-28dba008f374}, !- Handle
  Surface 6,                              !- Name
  RoofCeiling,                            !- Surface Type
  ,                                       !- Construction Name
  {b1db3c62-f7ec-4c68-a1b4-78d54e818221}, !- Space Name
  Surface,                                !- Outside Boundary Condition
  {34bd33f0-d56c-455b-b375-1907eac32b77}, !- Outside Boundary Condition Object
  NoSun,                                  !- Sun Exposure
  NoWind,                                 !- Wind Exposure
  ,                                       !- View Factor to Ground
  ,                                       !- Number of Vertices
  4.57200000000005, 0, 3.048,             !- X,Y,Z Vertex 1 {m}
  4.57200000000005, 4.572, 3.048,         !- X,Y,Z Vertex 2 {m}
  4.61852778244065e-014, 4.572, 3.048,    !- X,Y,Z Vertex 3 {m}
  4.61852778244065e-014, 0, 3.048;        !- X,Y,Z Vertex 4 {m}

OS:ThermalZone,
  {fa3bb157-c470-40b5-9f8c-3c7d1f643579}, !- Handle
  Zone LargeHotel Cafe A end_a - Story B1, !- Name
  1,                                      !- Multiplier
  ,                                       !- Ceiling Height {m}
  ,                                       !- Volume {m3}
  ,                                       !- Floor Area {m2}
  ,                                       !- Zone Inside Convection Algorithm
  ,                                       !- Zone Outside Convection Algorithm
  ,                                       !- Zone Conditioning Equipment List Name
  {3156ef1a-eca5-4bca-bb42-95a342a584f0}, !- Zone Air Inlet Port List
  {75de0dee-9ae6-45bf-a6e1-a88c5f63b01e}, !- Zone Air Exhaust Port List
  {76e35091-389b-4a32-a571-d4a3da83f329}, !- Zone Air Node Name
  {00ae36a1-e329-4eb2-bc9f-853f241c963f}, !- Zone Return Air Port List
  ,                                       !- Primary Daylighting Control Name
  ,                                       !- Fraction of Zone Controlled by Primary Daylighting Control
  ,                                       !- Secondary Daylighting Control Name
  ,                                       !- Fraction of Zone Controlled by Secondary Daylighting Control
  ,                                       !- Illuminance Map Name
  ,                                       !- Group Rendering Name
  ,                                       !- Thermostat Name
  No;                                     !- Use Ideal Air Loads

OS:Node,
  {cea1546a-afa2-488c-bdb7-62e4bc0a21c6}, !- Handle
  Node 1,                                 !- Name
  {76e35091-389b-4a32-a571-d4a3da83f329}, !- Inlet Port
  ;                                       !- Outlet Port

OS:Connection,
  {76e35091-389b-4a32-a571-d4a3da83f329}, !- Handle
  {4a611a8c-e2eb-4021-968f-5d7118ea09ec}, !- Name
  {fa3bb157-c470-40b5-9f8c-3c7d1f643579}, !- Source Object
  11,                                     !- Outlet Port
  {cea1546a-afa2-488c-bdb7-62e4bc0a21c6}, !- Target Object
  2;                                      !- Inlet Port

OS:PortList,
  {3156ef1a-eca5-4bca-bb42-95a342a584f0}, !- Handle
  {a0b43d1a-1c96-49bf-9fab-ffe281f3530c}, !- Name
  {fa3bb157-c470-40b5-9f8c-3c7d1f643579}; !- HVAC Component

OS:PortList,
  {75de0dee-9ae6-45bf-a6e1-a88c5f63b01e}, !- Handle
  {a459c009-fa4e-45f2-80a9-62acbe5ca78c}, !- Name
  {fa3bb157-c470-40b5-9f8c-3c7d1f643579}; !- HVAC Component

OS:PortList,
  {00ae36a1-e329-4eb2-bc9f-853f241c963f}, !- Handle
  {39187c5f-91db-414d-bbd1-7e9c9c411678}, !- Name
  {fa3bb157-c470-40b5-9f8c-3c7d1f643579}; !- HVAC Component

OS:Sizing:Zone,
  {3bd4152f-a3e1-44f2-913e-09adda5cedce}, !- Handle
  {fa3bb157-c470-40b5-9f8c-3c7d1f643579}, !- Zone or ZoneList Name
  SupplyAirTemperature,                   !- Zone Cooling Design Supply Air Temperature Input Method
  14,                                     !- Zone Cooling Design Supply Air Temperature {C}
  11.11,                                  !- Zone Cooling Design Supply Air Temperature Difference {deltaC}
  SupplyAirTemperature,                   !- Zone Heating Design Supply Air Temperature Input Method
  40,                                     !- Zone Heating Design Supply Air Temperature {C}
  11.11,                                  !- Zone Heating Design Supply Air Temperature Difference {deltaC}
  0.0085,                                 !- Zone Cooling Design Supply Air Humidity Ratio {kg-H2O/kg-air}
  0.008,                                  !- Zone Heating Design Supply Air Humidity Ratio {kg-H2O/kg-air}
  ,                                       !- Zone Heating Sizing Factor
  ,                                       !- Zone Cooling Sizing Factor
  DesignDay,                              !- Cooling Design Air Flow Method
  ,                                       !- Cooling Design Air Flow Rate {m3/s}
  ,                                       !- Cooling Minimum Air Flow per Zone Floor Area {m3/s-m2}
  ,                                       !- Cooling Minimum Air Flow {m3/s}
  ,                                       !- Cooling Minimum Air Flow Fraction
  DesignDay,                              !- Heating Design Air Flow Method
  ,                                       !- Heating Design Air Flow Rate {m3/s}
  ,                                       !- Heating Maximum Air Flow per Zone Floor Area {m3/s-m2}
  ,                                       !- Heating Maximum Air Flow {m3/s}
  ,                                       !- Heating Maximum Air Flow Fraction
  ,                                       !- Design Zone Air Distribution Effectiveness in Cooling Mode
  ,                                       !- Design Zone Air Distribution Effectiveness in Heating Mode
  No,                                     !- Account for Dedicated Outdoor Air System
  NeutralSupplyAir,                       !- Dedicated Outdoor Air System Control Strategy
  autosize,                               !- Dedicated Outdoor Air Low Setpoint Temperature for Design {C}
  autosize;                               !- Dedicated Outdoor Air High Setpoint Temperature for Design {C}

OS:ZoneHVAC:EquipmentList,
  {fcd3e6b9-73e6-422e-9a19-d44236a869d3}, !- Handle
  Zone HVAC Equipment List 1,             !- Name
  {fa3bb157-c470-40b5-9f8c-3c7d1f643579}; !- Thermal Zone

OS:Space,
  {5a81df5c-458f-4958-b41f-6c7679ce602d}, !- Handle
  LargeHotel Cafe B end_a - Story B1,     !- Name
  {e20b85bf-1ba0-44d1-a617-1a946873d15a}, !- Space Type Name
  ,                                       !- Default Construction Set Name
  ,                                       !- Default Schedule Set Name
  -0,                                     !- Direction of Relative North {deg}
  -20.3992205733454,                      !- X Origin {m}
  -4.91600956899788,                      !- Y Origin {m}
  -3.048,                                 !- Z Origin {m}
  {cd7c1bf9-82f2-49d4-9477-04622b9996ef}, !- Building Story Name
  {62b19612-8638-4023-8cb6-fba79e9ef1f8}; !- Thermal Zone Name

OS:Surface,
  {c2c8dac9-872f-4dcf-8964-313bf123178f}, !- Handle
  Surface 7,                              !- Name
  Floor,                                  !- Surface Type
  ,                                       !- Construction Name
  {5a81df5c-458f-4958-b41f-6c7679ce602d}, !- Space Name
  Ground,                                 !- Outside Boundary Condition
  ,                                       !- Outside Boundary Condition Object
  NoSun,                                  !- Sun Exposure
  NoWind,                                 !- Wind Exposure
  ,                                       !- View Factor to Ground
  ,                                       !- Number of Vertices
  4.61852778244065e-014, 0, 0,            !- X,Y,Z Vertex 1 {m}
  4.61852778244065e-014, 9.83201913799576, 0, !- X,Y,Z Vertex 2 {m}
  4.57200000000005, 9.83201913799576, 0,  !- X,Y,Z Vertex 3 {m}
  4.57200000000005, 0, 0;                 !- X,Y,Z Vertex 4 {m}

OS:Surface,
  {d7740e72-8b80-4fa8-a1cd-45dc52e32194}, !- Handle
  Surface 8,                              !- Name
  Wall,                                   !- Surface Type
  ,                                       !- Construction Name
  {5a81df5c-458f-4958-b41f-6c7679ce602d}, !- Space Name
  Ground,                                 !- Outside Boundary Condition
  ,                                       !- Outside Boundary Condition Object
  NoSun,                                  !- Sun Exposure
  NoWind,                                 !- Wind Exposure
  ,                                       !- View Factor to Ground
  ,                                       !- Number of Vertices
  4.61852778244065e-014, 9.83201913799576, 3.048, !- X,Y,Z Vertex 1 {m}
  4.61852778244065e-014, 9.83201913799576, 0, !- X,Y,Z Vertex 2 {m}
  4.61852778244065e-014, 0, 0,            !- X,Y,Z Vertex 3 {m}
  4.61852778244065e-014, 0, 3.048;        !- X,Y,Z Vertex 4 {m}

OS:Surface,
  {911801f4-5561-4b23-be0e-bf6d2a613214}, !- Handle
  Surface 9,                              !- Name
  Wall,                                   !- Surface Type
  ,                                       !- Construction Name
  {5a81df5c-458f-4958-b41f-6c7679ce602d}, !- Space Name
  Surface,                                !- Outside Boundary Condition
  {dfcd0319-8e0f-4c5f-befd-41fe5bf30616}, !- Outside Boundary Condition Object
  NoSun,                                  !- Sun Exposure
  NoWind,                                 !- Wind Exposure
  ,                                       !- View Factor to Ground
  ,                                       !- Number of Vertices
  4.57200000000005, 9.83201913799576, 3.048, !- X,Y,Z Vertex 1 {m}
  4.57200000000005, 9.83201913799576, 0,  !- X,Y,Z Vertex 2 {m}
  4.61852778244065e-014, 9.83201913799576, 0, !- X,Y,Z Vertex 3 {m}
  4.61852778244065e-014, 9.83201913799576, 3.048; !- X,Y,Z Vertex 4 {m}

OS:Surface,
  {18592b4a-303f-487f-b2f0-0b1bdf8ebf23}, !- Handle
  Surface 10,                             !- Name
  Wall,                                   !- Surface Type
  ,                                       !- Construction Name
  {5a81df5c-458f-4958-b41f-6c7679ce602d}, !- Space Name
  Surface,                                !- Outside Boundary Condition
  {239feae0-bfe3-4b8e-be63-9fc61a0f9b93}, !- Outside Boundary Condition Object
  NoSun,                                  !- Sun Exposure
  NoWind,                                 !- Wind Exposure
  ,                                       !- View Factor to Ground
  ,                                       !- Number of Vertices
  4.57200000000005, 0, 3.048,             !- X,Y,Z Vertex 1 {m}
  4.57200000000005, 0, 0,                 !- X,Y,Z Vertex 2 {m}
  4.57200000000005, 9.83201913799576, 0,  !- X,Y,Z Vertex 3 {m}
  4.57200000000005, 9.83201913799576, 3.048; !- X,Y,Z Vertex 4 {m}

OS:Surface,
  {a0cf83d2-cb91-47d4-806c-72469ec8068b}, !- Handle
  Surface 11,                             !- Name
  Wall,                                   !- Surface Type
  ,                                       !- Construction Name
  {5a81df5c-458f-4958-b41f-6c7679ce602d}, !- Space Name
  Surface,                                !- Outside Boundary Condition
  {d6e2650f-beed-49a6-b63d-e2023d864a9d}, !- Outside Boundary Condition Object
  NoSun,                                  !- Sun Exposure
  NoWind,                                 !- Wind Exposure
  ,                                       !- View Factor to Ground
  ,                                       !- Number of Vertices
  4.61852778244065e-014, 0, 3.048,        !- X,Y,Z Vertex 1 {m}
  4.61852778244065e-014, 0, 0,            !- X,Y,Z Vertex 2 {m}
  4.57200000000005, 0, 0,                 !- X,Y,Z Vertex 3 {m}
  4.57200000000005, 0, 3.048;             !- X,Y,Z Vertex 4 {m}

OS:Surface,