
OS:Version,
  {aacbad3e-09d9-4494-92f0-74eba25208f8}, !- Handle
  2.7.2;                                  !- Version Identifier

OS:SpaceType,
  {3791e2bf-d198-47cf-8e0a-7a86fd354843}, !- Handle
  LargeHotel Banquet,                     !- Name
  ,                                       !- Default Construction Set Name
  ,                                       !- Default Schedule Set Name
  {a327fc7d-1f3c-47ee-9cb5-998c621f528d}, !- Group Rendering Name
  ,                                       !- Design Specification Outdoor Air Object Name
  ,                                       !- Standards Template
  LargeHotel,                             !- Standards Building Type
  Banquet;                                !- Standards Space Type

OS:Rendering:Color,
  {a327fc7d-1f3c-47ee-9cb5-998c621f528d}, !- Handle
  LargeHotel Banquet,                     !- Name
  230,                                    !- Rendering Red Value
  196,                                    !- Rendering Green Value
  120;                                    !- Rendering Blue Value

OS:SpaceType,
  {d7ab2ece-6dfc-4cd9-8dd7-dbdb3f632636}, !- Handle
  LargeHotel Cafe,                        !- Name
  ,                                       !- Default Construction Set Name
  ,                                       !- Default Schedule Set Name
  {ec7b86d0-b7bd-49c6-9c45-226fc2f5affe}, !- Group Rendering Name
  ,                                       !- Design Specification Outdoor Air Object Name
  ,                                       !- Standards Template
  LargeHotel,                             !- Standards Building Type
  Cafe;                                   !- Standards Space Type

OS:Rendering:Color,
  {ec7b86d0-b7bd-49c6-9c45-226fc2f5affe}, !- Handle
  LargeHotel Cafe,                        !- Name
  31,                                     !- Rendering Red Value
  169,                                    !- Rendering Green Value
  34;                                     !- Rendering Blue Value

OS:SpaceType,
  {ecb16811-7ecc-445f-b72e-6ca9ef4b72dc}, !- Handle
  LargeHotel Corridor,                    !- Name
  ,                                       !- Default Construction Set Name
  ,                                       !- Default Schedule Set Name
  {ef46ef45-7244-41a5-8466-48de70ec1c35}, !- Group Rendering Name
  ,                                       !- Design Specification Outdoor Air Object Name
  ,                                       !- Standards Template
  LargeHotel,                             !- Standards Building Type
  Corridor;                               !- Standards Space Type

OS:Rendering:Color,
  {ef46ef45-7244-41a5-8466-48de70ec1c35}, !- Handle
  LargeHotel Corridor,                    !- Name
  169,                                    !- Rendering Red Value
  31,                                     !- Rendering Green Value
  31;                                     !- Rendering Blue Value

OS:SpaceType,
  {6a1c3105-f7cd-4a40-ae1f-705c7890a564}, !- Handle
  LargeHotel GuestRoom,                   !- Name
  ,                                       !- Default Construction Set Name
  ,                                       !- Default Schedule Set Name
  {c3b97500-55bf-4a76-a849-864f4ba1b097}, !- Group Rendering Name
  ,                                       !- Design Specification Outdoor Air Object Name
  ,                                       !- Standards Template
  LargeHotel,                             !- Standards Building Type
  GuestRoom;                              !- Standards Space Type

OS:Rendering:Color,
  {c3b97500-55bf-4a76-a849-864f4ba1b097}, !- Handle
  LargeHotel GuestRoom,                   !- Name
  78,                                     !- Rendering Red Value
  167,                                    !- Rendering Green Value
  222;                                    !- Rendering Blue Value

OS:SpaceType,
  {3ac5a019-abab-47cd-b2d7-e1ef3eedd710}, !- Handle
  LargeHotel Kitchen,                     !- Name
  ,                                       !- Default Construction Set Name
  ,                                       !- Default Schedule Set Name
  {502f1bb5-3ab3-43d5-9015-39e2caaa372f}, !- Group Rendering Name
  ,                                       !- Design Specification Outdoor Air Object Name
  ,                                       !- Standards Template
  LargeHotel,                             !- Standards Building Type
  Kitchen;                                !- Standards Space Type

OS:Rendering:Color,
  {502f1bb5-3ab3-43d5-9015-39e2caaa372f}, !- Handle
  LargeHotel Kitchen,                     !- Name
  78,                                     !- Rendering Red Value
  222,                                    !- Rendering Green Value
  133;                                    !- Rendering Blue Value

OS:SpaceType,
  {fee9549f-13e4-403d-90b4-4dff8c577e76}, !- Handle
  LargeHotel Laundry,                     !- Name
  ,                                       !- Default Construction Set Name
  ,                                       !- Default Schedule Set Name
  {70e50db0-4446-43fc-8795-241eceba64a3}, !- Group Rendering Name
  ,                                       !- Design Specification Outdoor Air Object Name
  ,                                       !- Standards Template
  LargeHotel,                             !- Standards Building Type
  Laundry;                                !- Standards Space Type

OS:Rendering:Color,
  {70e50db0-4446-43fc-8795-241eceba64a3}, !- Handle
  LargeHotel Laundry,                     !- Name
  120,                                    !- Rendering Red Value
  149,                                    !- Rendering Green Value
  230;                                    !- Rendering Blue Value

OS:SpaceType,
  {98b2987e-b07f-4b7f-9548-75a980ff6c47}, !- Handle
  LargeHotel Lobby,                       !- Name
  ,                                       !- Default Construction Set Name
  ,                                       !- Default Schedule Set Name
  {c9db31de-8c7d-4220-8282-032233ad49ab}, !- Group Rendering Name
  ,                                       !- Design Specification Outdoor Air Object Name
  ,                                       !- Standards Template
  LargeHotel,                             !- Standards Building Type
  Lobby;                                  !- Standards Space Type

OS:Rendering:Color,
  {c9db31de-8c7d-4220-8282-032233ad49ab}, !- Handle
  LargeHotel Lobby,                       !- Name
  230,                                    !- Rendering Red Value
  157,                                    !- Rendering Green Value
  120;                                    !- Rendering Blue Value

OS:SpaceType,
  {c7a88793-ae66-4d04-ab14-27813a5c4fb5}, !- Handle
  LargeHotel Mechanical,                  !- Name
  ,                                       !- Default Construction Set Name
  ,                                       !- Default Schedule Set Name
  {1723603f-b885-4dea-87bb-536621995d9d}, !- Group Rendering Name
  ,                                       !- Design Specification Outdoor Air Object Name
  ,                                       !- Standards Template
  LargeHotel,                             !- Standards Building Type
  Mechanical;                             !- Standards Space Type

OS:Rendering:Color,
  {1723603f-b885-4dea-87bb-536621995d9d}, !- Handle
  LargeHotel Mechanical,                  !- Name
  41,                                     !- Rendering Red Value
  31,                                     !- Rendering Green Value
  169;                                    !- Rendering Blue Value

OS:SpaceType,
  {ab61b031-366c-4db7-809b-0ebd81a23c94}, !- Handle
  LargeHotel Retail,                      !- Name
  ,                                       !- Default Construction Set Name
  ,                                       !- Default Schedule Set Name
  {e22a3dff-9150-4f83-b95a-948d1f46eadf}, !- Group Rendering Name
  ,                                       !- Design Specification Outdoor Air Object Name
  ,                                       !- Standards Template
  LargeHotel,                             !- Standards Building Type
  Retail;                                 !- Standards Space Type

OS:Rendering:Color,
  {e22a3dff-9150-4f83-b95a-948d1f46eadf}, !- Handle
  LargeHotel Retail,                      !- Name
  171,                                    !- Rendering Red Value
  222,                                    !- Rendering Green Value
  78;                                     !- Rendering Blue Value

OS:SpaceType,
  {09dee4d0-15dd-4bd2-bc81-bbd9f3d3427a}, !- Handle
  LargeHotel Storage,                     !- Name
  ,                                       !- Default Construction Set Name
  ,                                       !- Default Schedule Set Name
  {7ca55ecb-f547-4b15-b175-f544fb3c0091}, !- Group Rendering Name
  ,                                       !- Design Specification Outdoor Air Object Name
  ,                                       !- Standards Template
  LargeHotel,                             !- Standards Building Type
  Storage;                                !- Standards Space Type

OS:Rendering:Color,
  {7ca55ecb-f547-4b15-b175-f544fb3c0091}, !- Handle
  LargeHotel Storage,                     !- Name
  120,                                    !- Rendering Red Value
  149,                                    !- Rendering Green Value
  230;                                    !- Rendering Blue Value

OS:SpaceType,
  {bc82f27d-3550-4048-896e-9cf96a07ecb3}, !- Handle
  FullServiceRestaurant Dining,           !- Name
  ,                                       !- Default Construction Set Name
  ,                                       !- Default Schedule Set Name
  {bccb10a6-45fa-4ee6-ad42-cd3c7537976e}, !- Group Rendering Name
  ,                                       !- Design Specification Outdoor Air Object Name
  ,                                       !- Standards Template
  FullServiceRestaurant,                  !- Standards Building Type
  Dining;                                 !- Standards Space Type

OS:Rendering:Color,
  {bccb10a6-45fa-4ee6-ad42-cd3c7537976e}, !- Handle
  FullServiceRestaurant Dining,           !- Name
  31,                                     !- Rendering Red Value
  169,                                    !- Rendering Green Value
  34;                                     !- Rendering Blue Value

OS:SpaceType,
  {c712eed6-bdb7-4753-85eb-1da2cddf0a31}, !- Handle
  FullServiceRestaurant Kitchen,          !- Name
  ,                                       !- Default Construction Set Name
  ,                                       !- Default Schedule Set Name
  {7b897ba6-0d53-4565-a68b-e14a8927dd2c}, !- Group Rendering Name
  ,                                       !- Design Specification Outdoor Air Object Name
  ,                                       !- Standards Template
  FullServiceRestaurant,                  !- Standards Building Type
  Kitchen;                                !- Standards Space Type

OS:Rendering:Color,
  {7b897ba6-0d53-4565-a68b-e14a8927dd2c}, !- Handle
  FullServiceRestaurant Kitchen,          !- Name
  78,                                     !- Rendering Red Value
  222,                                    !- Rendering Green Value
  133;                                    !- Rendering Blue Value

OS:Building,
  {826688b2-c3df-4085-a7ff-a98389e78020}, !- Handle
  90.1-2004|LargeHotel|FullServiceRestaurant, !- Name
  ,                                       !- Building Sector Type
  ,                                       !- North Axis {deg}
  ,                                       !- Nominal Floor to Floor Height {m}
  ,                                       !- Space Type Name
  ,                                       !- Default Construction Set Name
  ;                                       !- Default Schedule Set Name

OS:Site,
  {05f2aea0-a880-4ba7-a9d2-70054c9afa7e}, !- Handle
  Site 1,                                 !- Name
  ,                                       !- Latitude {deg}
  ,                                       !- Longitude {deg}
  ,                                       !- Time Zone {hr}
  ,                                       !- Elevation {m}
  ;                                       !- Terrain

OS:BuildingStory,
  {345268bb-e0fb-4efd-ae2a-77055ee33f12}, !- Handle
  Story Ground,                           !- Name
  0,                                      !- Nominal Z Coordinate {m}
  3.048,                                  !- Nominal Floor to Floor Height {m}
  ,                                       !- Default Construction Set Name
  ,                                       !- Default Schedule Set Name
  ;                                       !- Group Rendering Name

OS:Space,
  {bd5d8e1a-1a36-43c0-964b-e178b4c3bd71}, !- Handle
  LargeHotel GuestRoom A end_a - Story Ground, !- Name
  {6a1c3105-f7cd-4a40-ae1f-705c7890a564}, !- Space Type Name
  ,                                       !- Default Construction Set Name
  ,                                       !- Default Schedule Set Name
  -0,                                     !- Direction of Relative North {deg}
  -38.4791138151595,                      !- X Origin {m}
  -7.54492427748226,                      !- Y Origin {m}
  0,                                      !- Z Origin {m}
  {345268bb-e0fb-4efd-ae2a-77055ee33f12}, !- Building Story Name
  {504370cc-7156-4d24-86c0-2824b2f0f91b}; !- Thermal Zone Name

OS:Surface,
  {3b3d3643-7f2d-4a5c-b502-a071e8f3b806}, !- Handle
  Surface 1,                              !- Name
  Floor,                                  !- Surface Type
  ,                                       !- Construction Name
  {bd5d8e1a-1a36-43c0-964b-e178b4c3bd71}, !- Space Name
  Ground,                                 !- Outside Boundary Condition
  ,                                       !- Outside Boundary Condition Object
  NoSun,                                  !- Sun Exposure
  NoWind,                                 !- Wind Exposure
  ,                                       !- View Factor to Ground
  ,                                       !- Number of Vertices
  1.4210854715202e-014, -1.77635683940025e-015, 0, !- X,Y,Z Vertex 1 {m}
  1.4210854715202e-014, 4.572, 0,         !- X,Y,Z Vertex 2 {m}
  4.57200000000002, 4.572, 0,             !- X,Y,Z Vertex 3 {m}
  4.57200000000002, -1.77635683940025e-015, 0; !- X,Y,Z Vertex 4 {m}

OS:Surface,
  {6da76b03-3a49-404a-a3dd-33dd68a91999}, !- Handle
  Surface 2,                              !- Name
  Wall,                                   !- Surface Type
  ,                                       !- Construction Name
  {bd5d8e1a-1a36-43c0-964b-e178b4c3bd71}, !- Space Name
  Outdoors,                               !- Outside Boundary Condition
  ,                                       !- Outside Boundary Condition Object
  SunExposed,                             !- Sun Exposure
  WindExposed,                            !- Wind Exposure
  ,                                       !- View Factor to Ground
  ,                                       !- Number of Vertices
  1.4210854715202e-014, 4.572, 3.048,     !- X,Y,Z Vertex 1 {m}
  1.4210854715202e-014, 4.572, 0,         !- X,Y,Z Vertex 2 {m}
  1.4210854715202e-014, -1.77635683940025e-015, 0, !- X,Y,Z Vertex 3 {m}
  1.4210854715202e-014, -1.77635683940025e-015, 3.048; !- X,Y,Z Vertex 4 {m}

OS:Surface,
  {5402393f-da35-4377-9435-f11d3b1050a9}, !- Handle
  Surface 3,                              !- Name
  Wall,                                   !- Surface Type
  ,                                       !- Construction Name
  {bd5d8e1a-1a36-43c0-964b-e178b4c3bd71}, !- Space Name
  Surface,                                !- Outside Boundary Condition
  {0a82782d-147b-4c6e-b2f5-ec858f3f65e8}, !- Outside Boundary Condition Object
  NoSun,                                  !- Sun Exposure
  NoWind,                                 !- Wind Exposure
  ,                                       !- View Factor to Ground
  ,                                       !- Number of Vertices
  4.57200000000002, 4.572, 3.048,         !- X,Y,Z Vertex 1 {m}
  4.57200000000002, 4.572, 0,             !- X,Y,Z Vertex 2 {m}
  1.4210854715202e-014, 4.572, 0,         !- X,Y,Z Vertex 3 {m}
  1.4210854715202e-014, 4.572, 3.048;     !- X,Y,Z Vertex 4 {m}

OS:Surface,
  {d9f155e9-76de-4490-b9df-066b37b22d82}, !- Handle
  Surface 4,                              !- Name
  Wall,                                   !- Surface Type
  ,                                       !- Construction Name
  {bd5d8e1a-1a36-43c0-964b-e178b4c3bd71}, !- Space Name
  Surface,                                !- Outside Boundary Condition
  {b19856fe-5e42-4494-ae9d-edcf4f7b7f36}, !- Outside Boundary Condition Object
  NoSun,                                  !- Sun Exposure
  NoWind,                                 !- Wind Exposure
  ,                                       !- View Factor to Ground
  ,                                       !- Number of Vertices
  4.57200000000002, -1.77635683940025e-015, 3.048, !- X,Y,Z Vertex 1 {m}
  4.57200000000002, -1.77635683940025e-015, 0, !- X,Y,Z Vertex 2 {m}
  4.57200000000002, 4.572, 0,             !- X,Y,Z Vertex 3 {m}
  4.57200000000002, 4.572, 3.048;         !- X,Y,Z Vertex 4 {m}

OS:Surface,
  {142dce84-0d9c-49f5-8f08-4b3aac1f7eec}, !- Handle
  Surface 5,                              !- Name
  Wall,                                   !- Surface Type
  ,                                       !- Construction Name
  {bd5d8e1a-1a36-43c0-964b-e178b4c3bd71}, !- Space Name
  Outdoors,                               !- Outside Boundary Condition
  ,                                       !- Outside Boundary Condition Object
  SunExposed,                             !- Sun Exposure
  WindExposed,                            !- Wind Exposure
  ,                                       !- View Factor to Ground
  ,                                       !- Number of Vertices
  1.4210854715202e-014, -1.77635683940025e-015, 3.048, !- X,Y,Z Vertex 1 {m}
  1.4210854715202e-014, -1.77635683940025e-015, 0, !- X,Y,Z Vertex 2 {m}
  4.57200000000002, -1.77635683940025e-015, 0, !- X,Y,Z Vertex 3 {m}
  4.57200000000002, -1.77635683940025e-015, 3.048; !- X,Y,Z Vertex 4 {m}

OS:Surface,
  {4a5799fc-a481-4c51-b061-6ed5e18c3126}, !- Handle
  Surface 6,                              !- Name
  RoofCeiling,                            !- Surface Type
  ,                                       !- Construction Name
  {bd5d8e1a-1a36-43c0-964b-e178b4c3bd71}, !- Space Name
  Adiabatic,                              !- Outside Boundary Condition
  ,                                       !- Outside Boundary Condition Object
  NoSun,                                  !- Sun Exposure
  NoWind,                                 !- Wind Exposure
  ,                                       !- View Factor to Ground
  ,                                       !- Number of Vertices
  4.57200000000002, -1.77635683940025e-015, 3.048, !- X,Y,Z Vertex 1 {m}
  4.57200000000002, 4.572, 3.048,         !- X,Y,Z Vertex 2 {m}
  1.4210854715202e-014, 4.572, 3.048,     !- X,Y,Z Vertex 3 {m}
  1.4210854715202e-014, -1.77635683940025e-015, 3.048; !- X,Y,Z Vertex 4 {m}

OS:ThermalZone,
  {504370cc-7156-4d24-86c0-2824b2f0f91b}, !- Handle
  Zone LargeHotel GuestRoom A end_a - Story Ground, !- Name
  1,                                      !- Multiplier
  ,                                       !- Ceiling Height {m}
  ,                                       !- Volume {m3}
  ,                                       !- Floor Area {m2}
  ,                                       !- Zone Inside Convection Algorithm
  ,                                       !- Zone Outside Convection Algorithm
  ,                                       !- Zone Conditioning Equipment List Name
  {67438737-0845-4628-9a92-be79b0ad1cd6}, !- Zone Air Inlet Port List
  {f61bc197-4f57-44e5-a65f-1ec0c3e43349}, !- Zone Air Exhaust Port List
  {9242fc01-1d2d-4fea-84ad-2e6577717cce}, !- Zone Air Node Name
  {8c49ba12-73bf-45f6-bb91-7345fed8f969}, !- Zone Return Air Port List
  ,                                       !- Primary Daylighting Control Name
  ,                                       !- Fraction of Zone Controlled by Primary Daylighting Control
  ,                                       !- Secondary Daylighting Control Name
  ,                                       !- Fraction of Zone Controlled by Secondary Daylighting Control
  ,                                       !- Illuminance Map Name
  ,                                       !- Group Rendering Name
  ,                                       !- Thermostat Name
  No;                                     !- Use Ideal Air Loads

OS:Node,
  {d0085b6c-9c1f-4cc5-b627-d9c2973cb23e}, !- Handle
  Node 1,                                 !- Name
  {9242fc01-1d2d-4fea-84ad-2e6577717cce}, !- Inlet Port
  ;                                       !- Outlet Port

OS:Connection,
  {9242fc01-1d2d-4fea-84ad-2e6577717cce}, !- Handle
  {6c81ca88-a600-4e13-9b08-a252082bfc3c}, !- Name
  {504370cc-7156-4d24-86c0-2824b2f0f91b}, !- Source Object
  11,                                     !- Outlet Port
  {d0085b6c-9c1f-4cc5-b627-d9c2973cb23e}, !- Target Object
  2;                                      !- Inlet Port

OS:PortList,
  {67438737-0845-4628-9a92-be79b0ad1cd6}, !- Handle
  {d773d33e-4bb7-4fe9-b550-57427d87423d}, !- Name
  {504370cc-7156-4d24-86c0-2824b2f0f91b}; !- HVAC Component

OS:PortList,
  {f61bc197-4f57-44e5-a65f-1ec0c3e43349}, !- Handle
  {59b46818-bfdd-4db4-beef-4654cb10c91e}, !- Name
  {504370cc-7156-4d24-86c0-2824b2f0f91b}; !- HVAC Component

OS:PortList,
  {8c49ba12-73bf-45f6-bb91-7345fed8f969}, !- Handle
  {de8917b2-f58e-489f-967d-5f7bd45d433c}, !- Name
  {504370cc-7156-4d24-86c0-2824b2f0f91b}; !- HVAC Component

OS:Sizing:Zone,
  {eb5fe7e5-cbf0-40ce-a6a0-ad3fac23021d}, !- Handle
  {504370cc-7156-4d24-86c0-2824b2f0f91b}, !- Zone or ZoneList Name
  SupplyAirTemperature,                   !- Zone Cooling Design Supply Air Temperature Input Method
  14,                                     !- Zone Cooling Design Supply Air Temperature {C}
  11.11,                                  !- Zone Cooling Design Supply Air Temperature Difference {deltaC}
  SupplyAirTemperature,                   !- Zone Heating Design Supply Air Temperature Input Method
  40,                                     !- Zone Heating Design Supply Air Temperature {C}
  11.11,                                  !- Zone Heating Design Supply Air Temperature Difference {deltaC}
  0.0085,                                 !- Zone Cooling Design Supply Air Humidity Ratio {kg-H2O/kg-air}
  0.008,                                  !- Zone Heating Design Supply Air Humidity Ratio {kg-H2O/kg-air}
  ,                                       !- Zone Heating Sizing Factor
  ,                                       !- Zone Cooling Sizing Factor
  DesignDay,                              !- Cooling Design Air Flow Method
  ,                                       !- Cooling Design Air Flow Rate {m3/s}
  ,                                       !- Cooling Minimum Air Flow per Zone Floor Area {m3/s-m2}
  ,                                       !- Cooling Minimum Air Flow {m3/s}
  ,                                       !- Cooling Minimum Air Flow Fraction
  DesignDay,                              !- Heating Design Air Flow Method
  ,                                       !- Heating Design Air Flow Rate {m3/s}
  ,                                       !- Heating Maximum Air Flow per Zone Floor Area {m3/s-m2}
  ,                                       !- Heating Maximum Air Flow {m3/s}
  ,                                       !- Heating Maximum Air Flow Fraction
  ,                                       !- Design Zone Air Distribution Effectiveness in Cooling Mode
  ,                                       !- Design Zone Air Distribution Effectiveness in Heating Mode
  No,                                     !- Account for Dedicated Outdoor Air System
  NeutralSupplyAir,                       !- Dedicated Outdoor Air System Control Strategy
  autosize,                               !- Dedicated Outdoor Air Low Setpoint Temperature for Design {C}
  autosize;                               !- Dedicated Outdoor Air High Setpoint Temperature for Design {C}

OS:ZoneHVAC:EquipmentList,
  {2e5ee53c-31f1-4448-95f3-ed7631384c60}, !- Handle
  Zone HVAC Equipment List 1,             !- Name
  {504370cc-7156-4d24-86c0-2824b2f0f91b}; !- Thermal Zone

OS:Space,
  {09c18060-39c6-4895-8c12-1a72e0900d45}, !- Handle
  LargeHotel GuestRoom B end_a - Story Ground, !- Name
  {6a1c3105-f7cd-4a40-ae1f-705c7890a564}, !- Space Type Name
  ,                                       !- Default Construction Set Name
  ,                                       !- Default Schedule Set Name
  -0,                                     !- Direction of Relative North {deg}
  -38.4791138151595,                      !- X Origin {m}
  -2.97292427748226,                      !- Y Origin {m}
  0,                                      !- Z Origin {m}
  {345268bb-e0fb-4efd-ae2a-77055ee33f12}, !- Building Story Name
  {1984c037-8991-46d0-9e37-bec19abb1754}; !- Thermal Zone Name

OS:Surface,
  {54fa3ece-ace0-4c9f-948f-6d3ec3d15b6d}, !- Handle
  Surface 7,                              !- Name
  Floor,                                  !- Surface Type
  ,                                       !- Construction Name
  {09c18060-39c6-4895-8c12-1a72e0900d45}, !- Space Name
  Ground,                                 !- Outside Boundary Condition
  ,                                       !- Outside Boundary Condition Object
  NoSun,                                  !- Sun Exposure
  NoWind,                                 !- Wind Exposure
  ,                                       !- View Factor to Ground
  ,                                       !- Number of Vertices
  1.4210854715202e-014, -1.77635683940025e-015, 0, !- X,Y,Z Vertex 1 {m}
  1.4210854715202e-014, 5.94584855496452, 0, !- X,Y,Z Vertex 2 {m}
  4.57200000000002, 5.94584855496452, 0,  !- X,Y,Z Vertex 3 {m}
  4.57200000000002, -1.77635683940025e-015, 0; !- X,Y,Z Vertex 4 {m}

OS:Surface,
  {3a3bf862-d945-4c4a-be62-68a7675aaed2}, !- Handle
  Surface 8,                              !- Name
  Wall,                                   !- Surface Type
  ,                                       !- Construction Name
  {09c18060-39c6-4895-8c12-1a72e0900d45}, !- Space Name
  Outdoors,                               !- Outside Boundary Condition
  ,                                       !- Outside Boundary Condition Object
  SunExposed,                             !- Sun Exposure
  WindExposed,                            !- Wind Exposure
  ,                                       !- View Factor to Ground
  ,                                       !- Number of Vertices
  1.4210854715202e-014, 5.94584855496452, 3.048, !- X,Y,Z Vertex 1 {m}
  1.4210854715202e-014, 5.94584855496452, 0, !- X,Y,Z Vertex 2 {m}
  1.4210854715202e-014, -1.77635683940025e-015, 0, !- X,Y,Z Vertex 3 {m}
  1.4210854715202e-014, -1.77635683940025e-015, 3.048; !- X,Y,Z Vertex 4 {m}

OS:Surface,
  {b09161ee-07e1-474b-8086-4f2a7f8cfca2}, !- Handle
  Surface 9,                              !- Name
  Wall,                                   !- Surface Type
  ,                                       !- Construction Name
  {09c18060-39c6-4895-8c12-1a72e0900d45}, !- Space Name
  Surface,                                !- Outside Boundary Condition
  {a4c6951d-91c3-43de-97ca-b7e55b8a4f4e}, !- Outside Boundary Condition Object
  NoSun,                                  !- Sun Exposure
  NoWind,                                 !- Wind Exposure
  ,                                       !- View Factor to Ground
  ,                                       !- Number of Vertices
  4.57200000000002, 5.94584855496452, 3.048, !- X,Y,Z Vertex 1 {m}
  4.57200000000002, 5.94584855496452, 0,  !- X,Y,Z Vertex 2 {m}
  1.4210854715202e-014, 5.94584855496452, 0, !- X,Y,Z Vertex 3 {m}
  1.4210854715202e-014, 5.94584855496452, 3.048; !- X,Y,Z Vertex 4 {m}

OS:Surface,
  {37f63b5c-6504-4b5c-971a-b4c2c4541a48}, !- Handle
  Surface 10,                             !- Name
  Wall,                                   !- Surface Type
  ,                                       !- Construction Name
  {09c18060-39c6-4895-8c12-1a72e0900d45}, !- Space Name
  Surface,                                !- Outside Boundary Condition
  {91430b6b-db97-473d-b6f3-0fa76e538d5d}, !- Outside Boundary Condition Object
  NoSun,                                  !- Sun Exposure
  NoWind,                                 !- Wind Exposure
  ,                                       !- View Factor to Ground
  ,                                       !- Number of Vertices
  4.57200000000002, -1.77635683940025e-015, 3.048, !- X,Y,Z Vertex 1 {m}
  4.57200000000002, -1.77635683940025e-015, 0, !- X,Y,Z Vertex 2 {m}
  4.57200000000002, 5.94584855496452, 0,  !- X,Y,Z Vertex 3 {m}
  4.57200000000002, 5.94584855496452, 3.048; !- X,Y,Z Vertex 4 {m}

OS:Surface,
  {0a82782d-147b-4c6e-b2f5-ec858f3f65e8}, !- Handle
  Surface 11,                             !- Name
  Wall,                                   !- Surface Type
  ,                                       !- Construction Name
  {09c18060-39c6-4895-8c12-1a72e0900d45}, !- Space Name
  Surface,                                !- Outside Boundary Condition
  {5402393f-da35-4377-9435-f11d3b1050a9}, !- Outside Boundary Condition Object
  NoSun,                                  !- Sun Exposure
  NoWind,                                 !- Wind Exposure
  ,                                       !- View Factor to Ground
  ,                                       !- Number of Vertices
  1.4210854715202e-014, -1.77635683940025e-015, 3.048, !- X,Y,Z Vertex 1 {m}