
OS:Version,
  {e70587b9-970d-49d0-b14a-3c64cabe75c4}, !- Handle
  2.7.2;                                  !- Version Identifier

OS:SpaceType,
  {259408a5-bacb-48a6-b566-9bbfc70fba92}, !- Handle
  LargeHotel Banquet,                     !- Name
  ,                                       !- Default Construction Set Name
  ,                                       !- Default Schedule Set Name
  {645a36cf-c96f-48da-a57c-d2187f3c55cb}, !- Group Rendering Name
  ,                                       !- Design Specification Outdoor Air Object Name
  ,                                       !- Standards Template
  LargeHotel,                             !- Standards Building Type
  Banquet;                                !- Standards Space Type

OS:Rendering:Color,
  {645a36cf-c96f-48da-a57c-d2187f3c55cb}, !- Handle
  LargeHotel Banquet,                     !- Name
  230,                                    !- Rendering Red Value
  196,                                    !- Rendering Green Value
  120;                                    !- Rendering Blue Value

OS:SpaceType,
  {4c46472d-f1e7-420c-b12f-3c1ecca0ed0e}, !- Handle
  LargeHotel Cafe,                        !- Name
  ,                                       !- Default Construction Set Name
  ,                                       !- Default Schedule Set Name
  {73590e46-169a-4a49-ad46-70fc41d6cd43}, !- Group Rendering Name
  ,                                       !- Design Specification Outdoor Air Object Name
  ,                                       !- Standards Template
  LargeHotel,                             !- Standards Building Type
  Cafe;                                   !- Standards Space Type

OS:Rendering:Color,
  {73590e46-169a-4a49-ad46-70fc41d6cd43}, !- Handle
  LargeHotel Cafe,                        !- Name
  31,                                     !- Rendering Red Value
  169,                                    !- Rendering Green Value
  34;                                     !- Rendering Blue Value

OS:SpaceType,
  {fdaacf8e-3042-4c87-b512-6630cd657ebf}, !- Handle
  LargeHotel Corridor,                    !- Name
  ,                                       !- Default Construction Set Name
  ,                                       !- Default Schedule Set Name
  {e55ede76-5a1c-4ba3-8b7e-cc12667de893}, !- Group Rendering Name
  ,                                       !- Design Specification Outdoor Air Object Name
  ,                                       !- Standards Template
  LargeHotel,                             !- Standards Building Type
  Corridor;                               !- Standards Space Type

OS:Rendering:Color,
  {e55ede76-5a1c-4ba3-8b7e-cc12667de893}, !- Handle
  LargeHotel Corridor,                    !- Name
  169,                                    !- Rendering Red Value
  31,                                     !- Rendering Green Value
  31;                                     !- Rendering Blue Value

OS:SpaceType,
  {0ee172e7-6fd2-45d0-91f6-c4e5028a21ab}, !- Handle
  LargeHotel GuestRoom,                   !- Name
  ,                                       !- Default Construction Set Name
  ,                                       !- Default Schedule Set Name
  {a446c4f3-7cf6-4b63-9ed9-3ab1a4a58b26}, !- Group Rendering Name
  ,                                       !- Design Specification Outdoor Air Object Name
  ,                                       !- Standards Template
  LargeHotel,                             !- Standards Building Type
  GuestRoom;                              !- Standards Space Type

OS:Rendering:Color,
  {a446c4f3-7cf6-4b63-9ed9-3ab1a4a58b26}, !- Handle
  LargeHotel GuestRoom,                   !- Name
  78,                                     !- Rendering Red Value
  167,                                    !- Rendering Green Value
  222;                                    !- Rendering Blue Value

OS:SpaceType,
  {18a2f48f-141a-45b0-a16c-10baaab4f32e}, !- Handle
  LargeHotel Kitchen,                     !- Name
  ,                                       !- Default Construction Set Name
  ,                                       !- Default Schedule Set Name
  {89bad563-40e7-4de5-8e79-e61179c98b83}, !- Group Rendering Name
  ,                                       !- Design Specification Outdoor Air Object Name
  ,                                       !- Standards Template
  LargeHotel,                             !- Standards Building Type
  Kitchen;                                !- Standards Space Type

OS:Rendering:Color,
  {89bad563-40e7-4de5-8e79-e61179c98b83}, !- Handle
  LargeHotel Kitchen,                     !- Name
  78,                                     !- Rendering Red Value
  222,                                    !- Rendering Green Value
  133;                                    !- Rendering Blue Value

OS:SpaceType,
  {a6a2071a-bcff-47fe-8eea-e83652cb456e}, !- Handle
  LargeHotel Laundry,                     !- Name
  ,                                       !- Default Construction Set Name
  ,                                       !- Default Schedule Set Name
  {c5883e25-73cb-4486-ac99-c52aae06b4db}, !- Group Rendering Name
  ,                                       !- Design Specification Outdoor Air Object Name
  ,                                       !- Standards Template
  LargeHotel,                             !- Standards Building Type
  Laundry;                                !- Standards Space Type

OS:Rendering:Color,
  {c5883e25-73cb-4486-ac99-c52aae06b4db}, !- Handle
  LargeHotel Laundry,                     !- Name
  120,                                    !- Rendering Red Value
  149,                                    !- Rendering Green Value
  230;                                    !- Rendering Blue Value

OS:SpaceType,
  {3baf3bca-63a8-40f1-986e-a1743c3dc408}, !- Handle
  LargeHotel Lobby,                       !- Name
  ,                                       !- Default Construction Set Name
  ,                                       !- Default Schedule Set Name
  {7668a75a-ee4d-4022-9d11-4458033103c0}, !- Group Rendering Name
  ,                                       !- Design Specification Outdoor Air Object Name
  ,                                       !- Standards Template
  LargeHotel,                             !- Standards Building Type
  Lobby;                                  !- Standards Space Type

OS:Rendering:Color,
  {7668a75a-ee4d-4022-9d11-4458033103c0}, !- Handle
  LargeHotel Lobby,                       !- Name
  230,                                    !- Rendering Red Value
  157,                                    !- Rendering Green Value
  120;                                    !- Rendering Blue Value

OS:SpaceType,
  {e5d31e92-588f-4afb-b86b-4562e559586d}, !- Handle
  LargeHotel Mechanical,                  !- Name
  ,                                       !- Default Construction Set Name
  ,                                       !- Default Schedule Set Name
  {86acc3ca-0f50-4d46-991c-9404ab29feb2}, !- Group Rendering Name
  ,                                       !- Design Specification Outdoor Air Object Name
  ,                                       !- Standards Template
  LargeHotel,                             !- Standards Building Type
  Mechanical;                             !- Standards Space Type

OS:Rendering:Color,
  {86acc3ca-0f50-4d46-991c-9404ab29feb2}, !- Handle
  LargeHotel Mechanical,                  !- Name
  41,                                     !- Rendering Red Value
  31,                                     !- Rendering Green Value
  169;                                    !- Rendering Blue Value

OS:SpaceType,
  {d6d3626c-fb25-4a14-b49b-572be170aa53}, !- Handle
  LargeHotel Retail,                      !- Name
  ,                                       !- Default Construction Set Name
  ,                                       !- Default Schedule Set Name
  {c3cbc0b7-df56-44ee-b2c2-9f49996b9ffe}, !- Group Rendering Name
  ,                                       !- Design Specification Outdoor Air Object Name
  ,                                       !- Standards Template
  LargeHotel,                             !- Standards Building Type
  Retail;                                 !- Standards Space Type

OS:Rendering:Color,
  {c3cbc0b7-df56-44ee-b2c2-9f49996b9ffe}, !- Handle
  LargeHotel Retail,                      !- Name
  171,                                    !- Rendering Red Value
  222,                                    !- Rendering Green Value
  78;                                     !- Rendering Blue Value

OS:SpaceType,
  {41b3ecef-d400-42b6-b5fc-b2fb20750722}, !- Handle
  LargeHotel Storage,                     !- Name
  ,                                       !- Default Construction Set Name
  ,                                       !- Default Schedule Set Name
  {f4928314-060d-4c99-b2f9-ae34225cd3d6}, !- Group Rendering Name
  ,                                       !- Design Specification Outdoor Air Object Name
  ,                                       !- Standards Template
  LargeHotel,                             !- Standards Building Type
  Storage;                                !- Standards Space Type

OS:Rendering:Color,
  {f4928314-060d-4c99-b2f9-ae34225cd3d6}, !- Handle
  LargeHotel Storage,                     !- Name
  120,                                    !- Rendering Red Value
  149,                                    !- Rendering Green Value
  230;                                    !- Rendering Blue Value

OS:SpaceType,
  {ff212826-74cc-4186-af57-87aef5f66c78}, !- Handle
  FullServiceRestaurant Dining,           !- Name
  ,                                       !- Default Construction Set Name
  ,                                       !- Default Schedule Set Name
  {f3190ef2-e6af-4148-9d91-985e477e00a4}, !- Group Rendering Name
  ,                                       !- Design Specification Outdoor Air Object Name
  ,                                       !- Standards Template
  FullServiceRestaurant,                  !- Standards Building Type
  Dining;                                 !- Standards Space Type

OS:Rendering:Color,
  {f3190ef2-e6af-4148-9d91-985e477e00a4}, !- Handle
  FullServiceRestaurant Dining,           !- Name
  31,                                     !- Rendering Red Value
  169,                                    !- Rendering Green Value
  34;                                     !- Rendering Blue Value

OS:SpaceType,
  {155e22ac-7860-4cfa-9c94-19b0dd70eaa8}, !- Handle
  FullServiceRestaurant Kitchen,          !- Name
  ,                                       !- Default Construction Set Name
  ,                                       !- Default Schedule Set Name
  {2b7dd56e-22e8-4a55-8605-8175af3a138a}, !- Group Rendering Name
  ,                                       !- Design Specification Outdoor Air Object Name
  ,                                       !- Standards Template
  FullServiceRestaurant,                  !- Standards Building Type
  Kitchen;                                !- Standards Space Type

OS:Rendering:Color,
  {2b7dd56e-22e8-4a55-8605-8175af3a138a}, !- Handle
  FullServiceRestaurant Kitchen,          !- Name
  78,                                     !- Rendering Red Value
  222,                                    !- Rendering Green Value
  133;                                    !- Rendering Blue Value

OS:Building,
  {734b9516-f77d-4fb6-8926-d6495bb174ff}, !- Handle
  90.1-2004|LargeHotel|FullServiceRestaurant, !- Name
  ,                                       !- Building Sector Type
  ,                                       !- North Axis {deg}
  ,                                       !- Nominal Floor to Floor Height {m}
  ,                                       !- Space Type Name
  ,                                       !- Default Construction Set Name
  ;                                       !- Default Schedule Set Name

OS:Site,
  {6a0b276c-4eeb-4682-9f3f-56fab491d0b0}, !- Handle
  Site 1,                                 !- Name
  ,                                       !- Latitude {deg}
  ,                                       !- Longitude {deg}
  ,                                       !- Time Zone {hr}
  ,                                       !- Elevation {m}
  ;                                       !- Terrain

OS:BuildingStory,
  {f328fe87-55e3-48cb-bd00-24fcb815d441}, !- Handle
  Story Ground,                           !- Name
  0,                                      !- Nominal Z Coordinate {m}
  3.048,                                  !- Nominal Floor to Floor Height {m}
  ,                                       !- Default Construction Set Name
  ,                                       !- Default Schedule Set Name
  ;                                       !- Group Rendering Name

OS:Space,
  {6a9a541f-d60f-4c59-9ae2-271a238a0fc9}, !- Handle
  LargeHotel Lobby A end_a - Story Ground, !- Name
  {3baf3bca-63a8-40f1-986e-a1743c3dc408}, !- Space Type Name
  ,                                       !- Default Construction Set Name
  ,                                       !- Default Schedule Set Name
  -0,                                     !- Direction of Relative North {deg}
  -62.8361297344131,                      !- X Origin {m}
  -12.3208097518457,                      !- Y Origin {m}
  0,                                      !- Z Origin {m}
  {f328fe87-55e3-48cb-bd00-24fcb815d441}, !- Building Story Name
  {bb840630-2e8b-44b9-9b6b-275b62d22893}; !- Thermal Zone Name

OS:Surface,
  {07f7e016-e25c-475b-9e9f-c98e85c51647}, !- Handle
  Surface 1,                              !- Name
  Floor,                                  !- Surface Type
  ,                                       !- Construction Name
  {6a9a541f-d60f-4c59-9ae2-271a238a0fc9}, !- Space Name
  Ground,                                 !- Outside Boundary Condition
  ,                                       !- Outside Boundary Condition Object
  NoSun,                                  !- Sun Exposure
  NoWind,                                 !- Wind Exposure
  ,                                       !- View Factor to Ground
  ,                                       !- Number of Vertices
  4.9737991503207e-014, 1.59872115546023e-014, 0, !- X,Y,Z Vertex 1 {m}
  4.9737991503207e-014, 4.57199999999999, 0, !- X,Y,Z Vertex 2 {m}
  4.57200000000005, 4.57199999999999, 0,  !- X,Y,Z Vertex 3 {m}
  4.57200000000005, 1.59872115546023e-014, 0; !- X,Y,Z Vertex 4 {m}

OS:Surface,
  {36f8fe3e-b9a2-48f0-871a-5786daf984aa}, !- Handle
  Surface 2,                              !- Name
  Wall,                                   !- Surface Type
  ,                                       !- Construction Name
  {6a9a541f-d60f-4c59-9ae2-271a238a0fc9}, !- Space Name
  Outdoors,                               !- Outside Boundary Condition
  ,                                       !- Outside Boundary Condition Object
  SunExposed,                             !- Sun Exposure
  WindExposed,                            !- Wind Exposure
  ,                                       !- View Factor to Ground
  ,                                       !- Number of Vertices
  4.9737991503207e-014, 4.57199999999999, 3.048, !- X,Y,Z Vertex 1 {m}
  4.9737991503207e-014, 4.57199999999999, 0, !- X,Y,Z Vertex 2 {m}
  4.9737991503207e-014, 1.59872115546023e-014, 0, !- X,Y,Z Vertex 3 {m}
  4.9737991503207e-014, 1.59872115546023e-014, 3.048; !- X,Y,Z Vertex 4 {m}

OS:Surface,
  {9b434880-c2e0-4b2d-ab89-d1a9d608ce97}, !- Handle
  Surface 3,                              !- Name
  Wall,                                   !- Surface Type
  ,                                       !- Construction Name
  {6a9a541f-d60f-4c59-9ae2-271a238a0fc9}, !- Space Name
  Surface,                                !- Outside Boundary Condition
  {3813ccd3-caa8-4be3-97bd-d5955d57892e}, !- Outside Boundary Condition Object
  NoSun,                                  !- Sun Exposure
  NoWind,                                 !- Wind Exposure
  ,                                       !- View Factor to Ground
  ,                                       !- Number of Vertices
  4.57200000000005, 4.57199999999999, 3.048, !- X,Y,Z Vertex 1 {m}
  4.57200000000005, 4.57199999999999, 0,  !- X,Y,Z Vertex 2 {m}
  4.9737991503207e-014, 4.57199999999999, 0, !- X,Y,Z Vertex 3 {m}
  4.9737991503207e-014, 4.57199999999999, 3.048; !- X,Y,Z Vertex 4 {m}

OS:Surface,
  {2d37ca35-9070-4894-a419-398abac4e3f8}, !- Handle
  Surface 4,                              !- Name
  Wall,                                   !- Surface Type
  ,                                       !- Construction Name
  {6a9a541f-d60f-4c59-9ae2-271a238a0fc9}, !- Space Name
  Surface,                                !- Outside Boundary Condition
  {e4326324-2677-4640-8050-1b855f54f1be}, !- Outside Boundary Condition Object
  NoSun,                                  !- Sun Exposure
  NoWind,                                 !- Wind Exposure
  ,                                       !- View Factor to Ground
  ,                                       !- Number of Vertices
  4.57200000000005, 1.59872115546023e-014, 3.048, !- X,Y,Z Vertex 1 {m}
  4.57200000000005, 1.59872115546023e-014, 0, !- X,Y,Z Vertex 2 {m}
  4.57200000000005, 4.57199999999999, 0,  !- X,Y,Z Vertex 3 {m}
  4.57200000000005, 4.57199999999999, 3.048; !- X,Y,Z Vertex 4 {m}

OS:Surface,
  {381b1a01-3457-483b-8c68-6284eb176a42}, !- Handle
  Surface 5,                              !- Name
  Wall,                                   !- Surface Type
  ,                                       !- Construction Name
  {6a9a541f-d60f-4c59-9ae2-271a238a0fc9}, !- Space Name
  Outdoors,                               !- Outside Boundary Condition
  ,                                       !- Outside Boundary Condition Object
  SunExposed,                             !- Sun Exposure
  WindExposed,                            !- Wind Exposure
  ,                                       !- View Factor to Ground
  ,                                       !- Number of Vertices
  4.9737991503207e-014, 1.59872115546023e-014, 3.048, !- X,Y,Z Vertex 1 {m}
  4.9737991503207e-014, 1.59872115546023e-014, 0, !- X,Y,Z Vertex 2 {m}
  4.57200000000005, 1.59872115546023e-014, 0, !- X,Y,Z Vertex 3 {m}
  4.57200000000005, 1.59872115546023e-014, 3.048; !- X,Y,Z Vertex 4 {m}

OS:Surface,
  {316023f5-8e64-4f65-b549-13c92ce3773d}, !- Handle
  Surface 6,                              !- Name
  RoofCeiling,                            !- Surface Type
  ,                                       !- Construction Name
  {6a9a541f-d60f-4c59-9ae2-271a238a0fc9}, !- Space Name
  Surface,                                !- Outside Boundary Condition
  {b91252a0-45fc-4f84-ba12-bb2e0361f364}, !- Outside Boundary Condition Object
  NoSun,                                  !- Sun Exposure
  NoWind,                                 !- Wind Exposure
  ,                                       !- View Factor to Ground
  ,                                       !- Number of Vertices
  4.57200000000005, 1.59872115546023e-014, 3.048, !- X,Y,Z Vertex 1 {m}
  4.57200000000005, 4.57199999999999, 3.048, !- X,Y,Z Vertex 2 {m}
  4.9737991503207e-014, 4.57199999999999, 3.048, !- X,Y,Z Vertex 3 {m}
  4.9737991503207e-014, 1.59872115546023e-014, 3.048; !- X,Y,Z Vertex 4 {m}

OS:ThermalZone,
  {bb840630-2e8b-44b9-9b6b-275b62d22893}, !- Handle
  Zone LargeHotel Lobby A end_a - Story Ground, !- Name
  1,                                      !- Multiplier
  ,                                       !- Ceiling Height {m}
  ,                                       !- Volume {m3}
  ,                                       !- Floor Area {m2}
  ,                                       !- Zone Inside Convection Algorithm
  ,                                       !- Zone Outside Convection Algorithm
  ,                                       !- Zone Conditioning Equipment List Name
  {1a5b9afe-6a45-46b2-9c73-1b7c4b4bc2f3}, !- Zone Air Inlet Port List
  {80c16b8a-e0b4-4b17-a496-b0f24be83651}, !- Zone Air Exhaust Port List
  {19d2ba6c-acc1-490d-9955-84c34bf514af}, !- Zone Air Node Name
  {72a3e2f9-c4ab-4292-ab0c-7aad5c6b6932}, !- Zone Return Air Port List
  ,                                       !- Primary Daylighting Control Name
  ,                                       !- Fraction of Zone Controlled by Primary Daylighting Control
  ,                                       !- Secondary Daylighting Control Name
  ,                                       !- Fraction of Zone Controlled by Secondary Daylighting Control
  ,                                       !- Illuminance Map Name
  ,                                       !- Group Rendering Name
  ,                                       !- Thermostat Name
  No;                                     !- Use Ideal Air Loads

OS:Node,
  {eab0e306-cb2a-4c9e-acab-36461150d545}, !- Handle
  Node 1,                                 !- Name
  {19d2ba6c-acc1-490d-9955-84c34bf514af}, !- Inlet Port
  ;                                       !- Outlet Port

OS:Connection,
  {19d2ba6c-acc1-490d-9955-84c34bf514af}, !- Handle
  {29675380-4d22-45e1-8af8-25cdfe660668}, !- Name
  {bb840630-2e8b-44b9-9b6b-275b62d22893}, !- Source Object
  11,                                     !- Outlet Port
  {eab0e306-cb2a-4c9e-acab-36461150d545}, !- Target Object
  2;                                      !- Inlet Port

OS:PortList,
  {1a5b9afe-6a45-46b2-9c73-1b7c4b4bc2f3}, !- Handle
  {8c8ab841-28e6-4d3e-a791-cd7d2591d4ff}, !- Name
  {bb840630-2e8b-44b9-9b6b-275b62d22893}; !- HVAC Component

OS:PortList,
  {80c16b8a-e0b4-4b17-a496-b0f24be83651}, !- Handle
  {6e83ef96-a3cd-4578-8eff-89c7c6a2ccb6}, !- Name
  {bb840630-2e8b-44b9-9b6b-275b62d22893}; !- HVAC Component

OS:PortList,
  {72a3e2f9-c4ab-4292-ab0c-7aad5c6b6932}, !- Handle
  {16629ee9-8c24-4ea6-8344-bef708069b7b}, !- Name
  {bb840630-2e8b-44b9-9b6b-275b62d22893}; !- HVAC Component

OS:Sizing:Zone,
  {ca616010-f1fb-4c5a-97ca-90a1dab61bb2}, !- Handle
  {bb840630-2e8b-44b9-9b6b-275b62d22893}, !- Zone or ZoneList Name
  SupplyAirTemperature,                   !- Zone Cooling Design Supply Air Temperature Input Method
  14,                                     !- Zone Cooling Design Supply Air Temperature {C}
  11.11,                                  !- Zone Cooling Design Supply Air Temperature Difference {deltaC}
  SupplyAirTemperature,                   !- Zone Heating Design Supply Air Temperature Input Method
  40,                                     !- Zone Heating Design Supply Air Temperature {C}
  11.11,                                  !- Zone Heating Design Supply Air Temperature Difference {deltaC}
  0.0085,                                 !- Zone Cooling Design Supply Air Humidity Ratio {kg-H2O/kg-air}
  0.008,                                  !- Zone Heating Design Supply Air Humidity Ratio {kg-H2O/kg-air}
  ,                                       !- Zone Heating Sizing Factor
  ,                                       !- Zone Cooling Sizing Factor
  DesignDay,                              !- Cooling Design Air Flow Method
  ,                                       !- Cooling Design Air Flow Rate {m3/s}
  ,                                       !- Cooling Minimum Air Flow per Zone Floor Area {m3/s-m2}
  ,                                       !- Cooling Minimum Air Flow {m3/s}
  ,                                       !- Cooling Minimum Air Flow Fraction
  DesignDay,                              !- Heating Design Air Flow Method
  ,                                       !- Heating Design Air Flow Rate {m3/s}
  ,                                       !- Heating Maximum Air Flow per Zone Floor Area {m3/s-m2}
  ,                                       !- Heating Maximum Air Flow {m3/s}
  ,                                       !- Heating Maximum Air Flow Fraction
  ,                                       !- Design Zone Air Distribution Effectiveness in Cooling Mode
  ,                                       !- Design Zone Air Distribution Effectiveness in Heating Mode
  No,                                     !- Account for Dedicated Outdoor Air System
  NeutralSupplyAir,                       !- Dedicated Outdoor Air System Control Strategy
  autosize,                               !- Dedicated Outdoor Air Low Setpoint Temperature for Design {C}
  autosize;                               !- Dedicated Outdoor Air High Setpoint Temperature for Design {C}

OS:ZoneHVAC:EquipmentList,
  {df334f3e-bc7a-4690-a039-0d000811007e}, !- Handle
  Zone HVAC Equipment List 1,             !- Name
  {bb840630-2e8b-44b9-9b6b-275b62d22893}; !- Thermal Zone

OS:Space,
  {c5d857c9-4f4a-425e-a402-b6f983a79592}, !- Handle
  LargeHotel Lobby B end_a - Story Ground, !- Name
  {3baf3bca-63a8-40f1-986e-a1743c3dc408}, !- Space Type Name
  ,                                       !- Default Construction Set Name
  ,                                       !- Default Schedule Set Name
  -0,                                     !- Direction of Relative North {deg}
  -62.8361297344131,                      !- X Origin {m}
  -7.74880975184572,                      !- Y Origin {m}
  0,                                      !- Z Origin {m}
  {f328fe87-55e3-48cb-bd00-24fcb815d441}, !- Building Story Name
  {72718f3e-3531-4ae9-927e-6914ad53a43f}; !- Thermal Zone Name

OS:Surface,
  {ee4c3bed-24b9-40a4-9045-15901235fe80}, !- Handle
  Surface 7,                              !- Name
  Floor,                                  !- Surface Type
  ,                                       !- Construction Name
  {c5d857c9-4f4a-425e-a402-b6f983a79592}, !- Space Name
  Ground,                                 !- Outside Boundary Condition
  ,                                       !- Outside Boundary Condition Object
  NoSun,                                  !- Sun Exposure
  NoWind,                                 !- Wind Exposure
  ,                                       !- View Factor to Ground
  ,                                       !- Number of Vertices
  4.9737991503207e-014, -5.32907051820075e-015, 0, !- X,Y,Z Vertex 1 {m}
  4.9737991503207e-014, 15.4976195036914, 0, !- X,Y,Z Vertex 2 {m}
  4.57200000000005, 15.4976195036914, 0,  !- X,Y,Z Vertex 3 {m}
  4.57200000000005, -5.32907051820075e-015, 0; !- X,Y,Z Vertex 4 {m}

OS:Surface,
  {7aa3ba39-7158-4e42-b807-24220da740ff}, !- Handle
  Surface 8,                              !- Name
  Wall,                                   !- Surface Type
  ,                                       !- Construction Name
  {c5d857c9-4f4a-425e-a402-b6f983a79592}, !- Space Name
  Outdoors,                               !- Outside Boundary Condition
  ,                                       !- Outside Boundary Condition Object
  SunExposed,                             !- Sun Exposure
  WindExposed,                            !- Wind Exposure
  ,                                       !- View Factor to Ground
  ,                                       !- Number of Vertices
  4.9737991503207e-014, 15.4976195036914, 3.048, !- X,Y,Z Vertex 1 {m}
  4.9737991503207e-014, 15.4976195036914, 0, !- X,Y,Z Vertex 2 {m}
  4.9737991503207e-014, -5.32907051820075e-015, 0, !- X,Y,Z Vertex 3 {m}
  4.9737991503207e-014, -5.32907051820075e-015, 3.048; !- X,Y,Z Vertex 4 {m}

OS:Surface,
  {7cce86a9-d548-4591-a7e6-89601587a5a6}, !- Handle
  Surface 9,                              !- Name
  Wall,                                   !- Surface Type
  ,                                       !- Construction Name
  {c5d857c9-4f4a-425e-a402-b6f983a79592}, !- Space Name
  Surface,                                !- Outside Boundary Condition
  {976adf99-ae5b-4e57-a2f6-1bd6ea553b0d}, !- Outside Boundary Condition Object
  NoSun,                                  !- Sun Exposure
  NoWind,                                 !- Wind Exposure
  ,                                       !- View Factor to Ground
  ,                                       !- Number of Vertices
  4.57200000000005, 15.4976195036914, 3.048, !- X,Y,Z Vertex 1 {m}
  4.57200000000005, 15.4976195036914, 0,  !- X,Y,Z Vertex 2 {m}
  4.9737991503207e-014, 15.4976195036914, 0, !- X,Y,Z Vertex 3 {m}
  4.9737991503207e-014, 15.4976195036914, 3.048; !- X,Y,Z Vertex 4 {m}

OS:Surface,
  {1e3e6d89-ff6a-44ce-b55f-5e77067c1522}, !- Handle
  Surface 10,                             !- Name
  Wall,                                   !- Surface Type
  ,                                       !- Construction Name
  {c5d857c9-4f4a-425e-a402-b6f983a79592}, !- Space Name
  Surface,                                !- Outside Boundary Condition
  {94a17046-af3c-440e-b28c-3808840fb347}, !- Outside Boundary Condition Object
  NoSun,                                  !- Sun Exposure
  NoWind,                                 !- Wind Exposure
  ,                                       !- View Factor to Ground
  ,                                       !- Number of Vertices
  4.57200000000005, -5.32907051820075e-015, 3.048, !- X,Y,Z Vertex 1 {m}
  4.57200000000005, -5.32907051820075e-015, 0, !- X,Y,Z Vertex 2 {m}
  4.57200000000005, 15.4976195036914, 0,  !- X,Y,Z Vertex 3 {m}
  4.57200000000005, 15.4976195036914, 3.048; !- X,Y,Z Vertex 4 {m}

OS:Surface,
  {3813ccd3-caa8-4be3-97bd-d5955d57892e}, !- Handle
  Surface 11,                             !- Name
  Wall,                                   !- Surface Type
  ,                                       !- Construction Name
  {c5d857c9-4f4a-425e-a402-b6f983a79592}, !- Space Name
  Surface,                                !- Outside Boundary Condition
  {9b434880-c2e0-4b2d-ab89-d1a9d608ce97}, !- Outside Boundary Condition Object
  NoSun,                                  !- Sun Exposure
  NoWind,                                 !- Wind Exposure
  ,                                       !- View Factor to Ground
  ,                                       !- Number of Vertices
  4.9737991503207e-014, -5.32907051820075e-015, 3.048, !- X,Y,Z Vertex 1 {m}