
OS:Version,
  {b6b602be-bab0-40d6-987d-e9050a3747a2}, !- Handle
  2.7.2;                                  !- Version Identifier

OS:SpaceType,
  {1a54c5bb-49d9-44fa-a3e9-0e8d8626667d}, !- Handle
  LargeHotel Banquet,                     !- Name
  ,                                       !- Default Construction Set Name
  ,                                       !- Default Schedule Set Name
  {07993797-c898-48be-b3ea-b04c529db347}, !- Group Rendering Name
  ,                                       !- Design Specification Outdoor Air Object Name
  ,                                       !- Standards Template
  LargeHotel,                             !- Standards Building Type
  Banquet;                                !- Standards Space Type

OS:Rendering:Color,
  {07993797-c898-48be-b3ea-b04c529db347}, !- Handle
  LargeHotel Banquet,                     !- Name
  230,                                    !- Rendering Red Value
  196,                                    !- Rendering Green Value
  120;                                    !- Rendering Blue Value

OS:SpaceType,
  {46593ecb-0879-464f-86a6-4526902f53cc}, !- Handle
  LargeHotel Cafe,                        !- Name
  ,                                       !- Default Construction Set Name
  ,                                       !- Default Schedule Set Name
  {50d415e5-6596-43bd-9d58-de55800248b7}, !- Group Rendering Name
  ,                                       !- Design Specification Outdoor Air Object Name
  ,                                       !- Standards Template
  LargeHotel,                             !- Standards Building Type
  Cafe;                                   !- Standards Space Type

OS:Rendering:Color,
  {50d415e5-6596-43bd-9d58-de55800248b7}, !- Handle
  LargeHotel Cafe,                        !- Name
  31,                                     !- Rendering Red Value
  169,                                    !- Rendering Green Value
  34;                                     !- Rendering Blue Value

OS:SpaceType,
  {e54c8fa3-a5b9-46c4-ac75-8b1f8e4b5f81}, !- Handle
  LargeHotel Corridor,                    !- Name
  ,                                       !- Default Construction Set Name
  ,                                       !- Default Schedule Set Name
  {b763f921-8bda-41a9-bcc3-acdcd516515a}, !- Group Rendering Name
  ,                                       !- Design Specification Outdoor Air Object Name
  ,                                       !- Standards Template
  LargeHotel,                             !- Standards Building Type
  Corridor;                               !- Standards Space Type

OS:Rendering:Color,
  {b763f921-8bda-41a9-bcc3-acdcd516515a}, !- Handle
  LargeHotel Corridor,                    !- Name
  169,                                    !- Rendering Red Value
  31,                                     !- Rendering Green Value
  31;                                     !- Rendering Blue Value

OS:SpaceType,
  {654348f1-d167-483f-8053-d89350cc8287}, !- Handle
  LargeHotel GuestRoom,                   !- Name
  ,                                       !- Default Construction Set Name
  ,                                       !- Default Schedule Set Name
  {176fa706-08c1-4c65-bb0f-03f8ee4f2120}, !- Group Rendering Name
  ,                                       !- Design Specification Outdoor Air Object Name
  ,                                       !- Standards Template
  LargeHotel,                             !- Standards Building Type
  GuestRoom;                              !- Standards Space Type

OS:Rendering:Color,
  {176fa706-08c1-4c65-bb0f-03f8ee4f2120}, !- Handle
  LargeHotel GuestRoom,                   !- Name
  78,                                     !- Rendering Red Value
  167,                                    !- Rendering Green Value
  222;                                    !- Rendering Blue Value

OS:SpaceType,
  {1e56f0c4-369d-4797-8c48-73cc7947f8a7}, !- Handle
  LargeHotel Kitchen,                     !- Name
  ,                                       !- Default Construction Set Name
  ,                                       !- Default Schedule Set Name
  {3ba1331d-517c-4f7f-95d8-273f6cad475c}, !- Group Rendering Name
  ,                                       !- Design Specification Outdoor Air Object Name
  ,                                       !- Standards Template
  LargeHotel,                             !- Standards Building Type
  Kitchen;                                !- Standards Space Type

OS:Rendering:Color,
  {3ba1331d-517c-4f7f-95d8-273f6cad475c}, !- Handle
  LargeHotel Kitchen,                     !- Name
  78,                                     !- Rendering Red Value
  222,                                    !- Rendering Green Value
  133;                                    !- Rendering Blue Value

OS:SpaceType,
  {fd07908f-e59d-4d41-b2f4-c5b4d536dd24}, !- Handle
  LargeHotel Laundry,                     !- Name
  ,                                       !- Default Construction Set Name
  ,                                       !- Default Schedule Set Name
  {27073a8d-3d57-4268-8912-150ee605e039}, !- Group Rendering Name
  ,                                       !- Design Specification Outdoor Air Object Name
  ,                                       !- Standards Template
  LargeHotel,                             !- Standards Building Type
  Laundry;                                !- Standards Space Type

OS:Rendering:Color,
  {27073a8d-3d57-4268-8912-150ee605e039}, !- Handle
  LargeHotel Laundry,                     !- Name
  120,                                    !- Rendering Red Value
  149,                                    !- Rendering Green Value
  230;                                    !- Rendering Blue Value

OS:SpaceType,
  {d3c3e182-7450-4eb2-bbb4-df29599c0bdb}, !- Handle
  LargeHotel Lobby,                       !- Name
  ,                                       !- Default Construction Set Name
  ,                                       !- Default Schedule Set Name
  {233b95d1-b425-446d-a47d-1ca04e4596db}, !- Group Rendering Name
  ,                                       !- Design Specification Outdoor Air Object Name
  ,                                       !- Standards Template
  LargeHotel,                             !- Standards Building Type
  Lobby;                                  !- Standards Space Type

OS:Rendering:Color,
  {233b95d1-b425-446d-a47d-1ca04e4596db}, !- Handle
  LargeHotel Lobby,                       !- Name
  230,                                    !- Rendering Red Value
  157,                                    !- Rendering Green Value
  120;                                    !- Rendering Blue Value

OS:SpaceType,
  {84fbef74-46cb-4304-84a1-79f9e599d249}, !- Handle
  LargeHotel Mechanical,                  !- Name
  ,                                       !- Default Construction Set Name
  ,                                       !- Default Schedule Set Name
  {f2d00ff5-3910-4b3c-855c-b0afe39b2c02}, !- Group Rendering Name
  ,                                       !- Design Specification Outdoor Air Object Name
  ,                                       !- Standards Template
  LargeHotel,                             !- Standards Building Type
  Mechanical;                             !- Standards Space Type

OS:Rendering:Color,
  {f2d00ff5-3910-4b3c-855c-b0afe39b2c02}, !- Handle
  LargeHotel Mechanical,                  !- Name
  41,                                     !- Rendering Red Value
  31,                                     !- Rendering Green Value
  169;                                    !- Rendering Blue Value

OS:SpaceType,
  {c3d19c66-0816-4f2f-a230-dce2ce151dee}, !- Handle
  LargeHotel Retail,                      !- Name
  ,                                       !- Default Construction Set Name
  ,                                       !- Default Schedule Set Name
  {93bd3aac-cd3b-4cda-b886-2510bc13a112}, !- Group Rendering Name
  ,                                       !- Design Specification Outdoor Air Object Name
  ,                                       !- Standards Template
  LargeHotel,                             !- Standards Building Type
  Retail;                                 !- Standards Space Type

OS:Rendering:Color,
  {93bd3aac-cd3b-4cda-b886-2510bc13a112}, !- Handle
  LargeHotel Retail,                      !- Name
  171,                                    !- Rendering Red Value
  222,                                    !- Rendering Green Value
  78;                                     !- Rendering Blue Value

OS:SpaceType,
  {b9bc943b-9922-4606-b961-a772999e9e76}, !- Handle
  LargeHotel Storage,                     !- Name
  ,                                       !- Default Construction Set Name
  ,                                       !- Default Schedule Set Name
  {a7e32d2a-6f48-4566-8fd4-363472d3981d}, !- Group Rendering Name
  ,                                       !- Design Specification Outdoor Air Object Name
  ,                                       !- Standards Template
  LargeHotel,                             !- Standards Building Type
  Storage;                                !- Standards Space Type

OS:Rendering:Color,
  {a7e32d2a-6f48-4566-8fd4-363472d3981d}, !- Handle
  LargeHotel Storage,                     !- Name
  120,                                    !- Rendering Red Value
  149,                                    !- Rendering Green Value
  230;                                    !- Rendering Blue Value

OS:SpaceType,
  {e9163964-637a-4758-bf13-ff057394f60d}, !- Handle
  FullServiceRestaurant Dining,           !- Name
  ,                                       !- Default Construction Set Name
  ,                                       !- Default Schedule Set Name
  {e2424da2-81af-499a-a6cc-e5516bb4ad8e}, !- Group Rendering Name
  ,                                       !- Design Specification Outdoor Air Object Name
  ,                                       !- Standards Template
  FullServiceRestaurant,                  !- Standards Building Type
  Dining;                                 !- Standards Space Type

OS:Rendering:Color,
  {e2424da2-81af-499a-a6cc-e5516bb4ad8e}, !- Handle
  FullServiceRestaurant Dining,           !- Name
  31,                                     !- Rendering Red Value
  169,                                    !- Rendering Green Value
  34;                                     !- Rendering Blue Value

OS:SpaceType,
  {dbd2a9b4-f563-452e-9034-53879fdfe7a8}, !- Handle
  FullServiceRestaurant Kitchen,          !- Name
  ,                                       !- Default Construction Set Name
  ,                                       !- Default Schedule Set Name
  {185209c0-9547-4813-b96a-74b68427d7ee}, !- Group Rendering Name
  ,                                       !- Design Specification Outdoor Air Object Name
  ,                                       !- Standards Template
  FullServiceRestaurant,                  !- Standards Building Type
  Kitchen;                                !- Standards Space Type

OS:Rendering:Color,
  {185209c0-9547-4813-b96a-74b68427d7ee}, !- Handle
  FullServiceRestaurant Kitchen,          !- Name
  78,                                     !- Rendering Red Value
  222,                                    !- Rendering Green Value
  133;                                    !- Rendering Blue Value

OS:Building,
  {591858e8-5deb-4008-bdba-2873e0e99336}, !- Handle
  90.1-2004|LargeHotel|FullServiceRestaurant, !- Name
  ,                                       !- Building Sector Type
  ,                                       !- North Axis {deg}
  ,                                       !- Nominal Floor to Floor Height {m}
  ,                                       !- Space Type Name
  ,                                       !- Default Construction Set Name
  ;                                       !- Default Schedule Set Name

OS:Site,
  {ab17e1af-d2fe-4105-a506-3a1b083fa914}, !- Handle
  Site 1,                                 !- Name
  ,                                       !- Latitude {deg}
  ,                                       !- Longitude {deg}
  ,                                       !- Time Zone {hr}
  ,                                       !- Elevation {m}
  ;                                       !- Terrain

OS:BuildingStory,
  {97ba4475-68fb-4455-9308-40c971a5ce12}, !- Handle
  Story B1,                               !- Name
  -3.048,                                 !- Nominal Z Coordinate {m}
  3.048,                                  !- Nominal Floor to Floor Height {m}
  ,                                       !- Default Construction Set Name
  ,                                       !- Default Schedule Set Name
  ;                                       !- Group Rendering Name

OS:Space,
  {4ba68f1e-3144-4d10-97ef-0ec94700ea6c}, !- Handle
  LargeHotel Cafe A end_a - Story B1,     !- Name
  {46593ecb-0879-464f-86a6-4526902f53cc}, !- Space Type Name
  ,                                       !- Default Construction Set Name
  ,                                       !- Default Schedule Set Name
  -0,                                     !- Direction of Relative North {deg}
  -20.3992205733454,                      !- X Origin {m}
  -9.48800956899788,                      !- Y Origin {m}
  -3.048,                                 !- Z Origin {m}
  {97ba4475-68fb-4455-9308-40c971a5ce12}, !- Building Story Name
  {fa099c6f-31e4-44d8-9da4-f97fcc32c96c}; !- Thermal Zone Name

OS:Surface,
  {6697cecb-755d-43a4-a237-5ad9a2896c6f}, !- Handle
  Surface 1,                              !- Name
  Floor,                                  !- Surface Type
  ,                                       !- Construction Name
  {4ba68f1e-3144-4d10-97ef-0ec94700ea6c}, !- Space Name
  Ground,                                 !- Outside Boundary Condition
  ,                                       !- Outside Boundary Condition Object
  NoSun,                                  !- Sun Exposure
  NoWind,                                 !- Wind Exposure
  ,                                       !- View Factor to Ground
  ,                                       !- Number of Vertices
  4.61852778244065e-014, 0, 0,            !- X,Y,Z Vertex 1 {m}
  4.61852778244065e-014, 4.572, 0,        !- X,Y,Z Vertex 2 {m}
  4.57200000000005, 4.572, 0,             !- X,Y,Z Vertex 3 {m}
  4.57200000000005, 0, 0;                 !- X,Y,Z Vertex 4 {m}

OS:Surface,
  {3c6e45be-ba06-40a2-977a-854077f77b9a}, !- Handle
  Surface 2,                              !- Name
  Wall,                                   !- Surface Type
  ,                                       !- Construction Name
  {4ba68f1e-3144-4d10-97ef-0ec94700ea6c}, !- Space Name
  Ground,                                 !- Outside Boundary Condition
  ,                                       !- Outside Boundary Condition Object
  NoSun,                                  !- Sun Exposure
  NoWind,                                 !- Wind Exposure
  ,                                       !- View Factor to Ground
  ,                                       !- Number of Vertices
  4.61852778244065e-014, 4.572, 3.048,    !- X,Y,Z Vertex 1 {m}
  4.61852778244065e-014, 4.572, 0,        !- X,Y,Z Vertex 2 {m}
  4.61852778244065e-014, 0, 0,            !- X,Y,Z Vertex 3 {m}
  4.61852778244065e-014, 0, 3.048;        !- X,Y,Z Vertex 4 {m}

OS:Surface,
  {97cc860c-2b62-48b4-ac16-480ba5c8f74c}, !- Handle
  Surface 3,                              !- Name
  Wall,                                   !- Surface Type
  ,                                       !- Construction Name
  {4ba68f1e-3144-4d10-97ef-0ec94700ea6c}, !- Space Name
  Surface,                                !- Outside Boundary Condition
  {798bf5ee-75fe-4b4a-88b4-9051037e9615}, !- Outside Boundary Condition Object
  NoSun,                                  !- Sun Exposure
  NoWind,                                 !- Wind Exposure
  ,                                       !- View Factor to Ground
  ,                                       !- Number of Vertices
  4.57200000000005, 4.572, 3.048,         !- X,Y,Z Vertex 1 {m}
  4.57200000000005, 4.572, 0,             !- X,Y,Z Vertex 2 {m}
  4.61852778244065e-014, 4.572, 0,        !- X,Y,Z Vertex 3 {m}
  4.61852778244065e-014, 4.572, 3.048;    !- X,Y,Z Vertex 4 {m}

OS:Surface,
  {385470fc-83cb-46ae-a54c-ba8fde6116a0}, !- Handle
  Surface 4,                              !- Name
  Wall,                                   !- Surface Type
  ,                                       !- Construction Name
  {4ba68f1e-3144-4d10-97ef-0ec94700ea6c}, !- Space Name
  Surface,                                !- Outside Boundary Condition
  {0f8d90dc-9993-4bfd-b310-5a73c3772d2e}, !- Outside Boundary Condition Object
  NoSun,                                  !- Sun Exposure
  NoWind,                                 !- Wind Exposure
  ,                                       !- View Factor to Ground
  ,                                       !- Number of Vertices
  4.57200000000005, 0, 3.048,             !- X,Y,Z Vertex 1 {m}
  4.57200000000005, 0, 0,                 !- X,Y,Z Vertex 2 {m}
  4.57200000000005, 4.572, 0,             !- X,Y,Z Vertex 3 {m}
  4.57200000000005, 4.572, 3.048;         !- X,Y,Z Vertex 4 {m}

OS:Surface,
  {1b534dba-241c-42c5-910e-f25088f5567b}, !- Handle
  Surface 5,                              !- Name
  Wall,                                   !- Surface Type
  ,                                       !- Construction Name
  {4ba68f1e-3144-4d10-97ef-0ec94700ea6c}, !- Space Name
  Ground,                                 !- Outside Boundary Condition
  ,                                       !- Outside Boundary Condition Object
  NoSun,                                  !- Sun Exposure
  NoWind,                                 !- Wind Exposure
  ,                                       !- View Factor to Ground
  ,                                       !- Number of Vertices
  4.61852778244065e-014, 0, 3.048,        !- X,Y,Z Vertex 1 {m}
  4.61852778244065e-014, 0, 0,            !- X,Y,Z Vertex 2 {m}
  4.57200000000005, 0, 0,                 !- X,Y,Z Vertex 3 {m}
  4.57200000000005, 0, 3.048;             !- X,Y,Z Vertex 4 {m}

OS:Surface,
  {990c5b27-6e73-48f6-9bf0-3f54ac6ca92e}, !- Handle
  Surface 6,                              !- Name
  RoofCeiling,                            !- Surface Type
  ,                                       !- Construction Name
  {4ba68f1e-3144-4d10-97ef-0ec94700ea6c}, !- Space Name
  Surface,                                !- Outside Boundary Condition
  {06cbd1e3-e994-4af4-8cde-c5ffbe6b748b}, !- Outside Boundary Condition Object
  NoSun,                                  !- Sun Exposure
  NoWind,                                 !- Wind Exposure
  ,                                       !- View Factor to Ground
  ,                                       !- Number of Vertices
  4.57200000000005, 0, 3.048,             !- X,Y,Z Vertex 1 {m}
  4.57200000000005, 4.572, 3.048,         !- X,Y,Z Vertex 2 {m}
  4.61852778244065e-014, 4.572, 3.048,    !- X,Y,Z Vertex 3 {m}
  4.61852778244065e-014, 0, 3.048;        !- X,Y,Z Vertex 4 {m}

OS:ThermalZone,
  {fa099c6f-31e4-44d8-9da4-f97fcc32c96c}, !- Handle
  Zone LargeHotel Cafe A end_a - Story B1, !- Name
  1,                                      !- Multiplier
  ,                                       !- Ceiling Height {m}
  ,                                       !- Volume {m3}
  ,                                       !- Floor Area {m2}
  ,                                       !- Zone Inside Convection Algorithm
  ,                                       !- Zone Outside Convection Algorithm
  ,                                       !- Zone Conditioning Equipment List Name
  {dac3325e-0ec9-46e3-9107-9f8199f9a392}, !- Zone Air Inlet Port List
  {7799ea2c-a60c-4fb5-823d-55fd0500ede1}, !- Zone Air Exhaust Port List
  {6eaf3eed-8dec-436b-912c-4be2e9b9ac96}, !- Zone Air Node Name
  {60bb23bb-3085-41c3-a65a-82c508c074c2}, !- Zone Return Air Port List
  ,                                       !- Primary Daylighting Control Name
  ,                                       !- Fraction of Zone Controlled by Primary Daylighting Control
  ,                                       !- Secondary Daylighting Control Name
  ,                                       !- Fraction of Zone Controlled by Secondary Daylighting Control
  ,                                       !- Illuminance Map Name
  ,                                       !- Group Rendering Name
  ,                                       !- Thermostat Name
  No;                                     !- Use Ideal Air Loads

OS:Node,
  {261e499a-118f-4f64-8d6c-7d45ee41824c}, !- Handle
  Node 1,                                 !- Name
  {6eaf3eed-8dec-436b-912c-4be2e9b9ac96}, !- Inlet Port
  ;                                       !- Outlet Port

OS:Connection,
  {6eaf3eed-8dec-436b-912c-4be2e9b9ac96}, !- Handle
  {a1ae026e-974b-4b53-8fbf-7f847ced7350}, !- Name
  {fa099c6f-31e4-44d8-9da4-f97fcc32c96c}, !- Source Object
  11,                                     !- Outlet Port
  {261e499a-118f-4f64-8d6c-7d45ee41824c}, !- Target Object
  2;                                      !- Inlet Port

OS:PortList,
  {dac3325e-0ec9-46e3-9107-9f8199f9a392}, !- Handle
  {a187fdc8-1c44-4176-b925-680c7f0814e1}, !- Name
  {fa099c6f-31e4-44d8-9da4-f97fcc32c96c}; !- HVAC Component

OS:PortList,
  {7799ea2c-a60c-4fb5-823d-55fd0500ede1}, !- Handle
  {a5f2c9e8-4ff5-4067-9356-5313fa517c35}, !- Name
  {fa099c6f-31e4-44d8-9da4-f97fcc32c96c}; !- HVAC Component

OS:PortList,
  {60bb23bb-3085-41c3-a65a-82c508c074c2}, !- Handle
  {5046f34b-811d-43a1-b46f-42e0e44d158a}, !- Name
  {fa099c6f-31e4-44d8-9da4-f97fcc32c96c}; !- HVAC Component

OS:Sizing:Zone,
  {92955c80-0728-47d5-8596-95978963fcb8}, !- Handle
  {fa099c6f-31e4-44d8-9da4-f97fcc32c96c}, !- Zone or ZoneList Name
  SupplyAirTemperature,                   !- Zone Cooling Design Supply Air Temperature Input Method
  14,                                     !- Zone Cooling Design Supply Air Temperature {C}
  11.11,                                  !- Zone Cooling Design Supply Air Temperature Difference {deltaC}
  SupplyAirTemperature,                   !- Zone Heating Design Supply Air Temperature Input Method
  40,                                     !- Zone Heating Design Supply Air Temperature {C}
  11.11,                                  !- Zone Heating Design Supply Air Temperature Difference {deltaC}
  0.0085,                                 !- Zone Cooling Design Supply Air Humidity Ratio {kg-H2O/kg-air}
  0.008,                                  !- Zone Heating Design Supply Air Humidity Ratio {kg-H2O/kg-air}
  ,                                       !- Zone Heating Sizing Factor
  ,                                       !- Zone Cooling Sizing Factor
  DesignDay,                              !- Cooling Design Air Flow Method
  ,                                       !- Cooling Design Air Flow Rate {m3/s}
  ,                                       !- Cooling Minimum Air Flow per Zone Floor Area {m3/s-m2}
  ,                                       !- Cooling Minimum Air Flow {m3/s}
  ,                                       !- Cooling Minimum Air Flow Fraction
  DesignDay,                              !- Heating Design Air Flow Method
  ,                                       !- Heating Design Air Flow Rate {m3/s}
  ,                                       !- Heating Maximum Air Flow per Zone Floor Area {m3/s-m2}
  ,                                       !- Heating Maximum Air Flow {m3/s}
  ,                                       !- Heating Maximum Air Flow Fraction
  ,                                       !- Design Zone Air Distribution Effectiveness in Cooling Mode
  ,                                       !- Design Zone Air Distribution Effectiveness in Heating Mode
  No,                                     !- Account for Dedicated Outdoor Air System
  NeutralSupplyAir,                       !- Dedicated Outdoor Air System Control Strategy
  autosize,                               !- Dedicated Outdoor Air Low Setpoint Temperature for Design {C}
  autosize;                               !- Dedicated Outdoor Air High Setpoint Temperature for Design {C}

OS:ZoneHVAC:EquipmentList,
  {bb3321e9-6c01-4852-a9ec-1f083da808dd}, !- Handle
  Zone HVAC Equipment List 1,             !- Name
  {fa099c6f-31e4-44d8-9da4-f97fcc32c96c}; !- Thermal Zone

OS:Space,
  {50cad498-f7ce-48c2-b1b7-1cd0fdc38cde}, !- Handle
  LargeHotel Cafe B end_a - Story B1,     !- Name
  {46593ecb-0879-464f-86a6-4526902f53cc}, !- Space Type Name
  ,                                       !- Default Construction Set Name
  ,                                       !- Default Schedule Set Name
  -0,                                     !- Direction of Relative North {deg}
  -20.3992205733454,                      !- X Origin {m}
  -4.91600956899788,                      !- Y Origin {m}
  -3.048,                                 !- Z Origin {m}
  {97ba4475-68fb-4455-9308-40c971a5ce12}, !- Building Story Name
  {4eaa487d-ce13-432d-834a-124081756336}; !- Thermal Zone Name

OS:Surface,
  {449261a7-d08d-4d6a-94fd-7495ffbc7529}, !- Handle
  Surface 7,                              !- Name
  Floor,                                  !- Surface Type
  ,                                       !- Construction Name
  {50cad498-f7ce-48c2-b1b7-1cd0fdc38cde}, !- Space Name
  Ground,                                 !- Outside Boundary Condition
  ,                                       !- Outside Boundary Condition Object
  NoSun,                                  !- Sun Exposure
  NoWind,                                 !- Wind Exposure
  ,                                       !- View Factor to Ground
  ,                                       !- Number of Vertices
  4.61852778244065e-014, 0, 0,            !- X,Y,Z Vertex 1 {m}
  4.61852778244065e-014, 9.83201913799576, 0, !- X,Y,Z Vertex 2 {m}
  4.57200000000005, 9.83201913799576, 0,  !- X,Y,Z Vertex 3 {m}
  4.57200000000005, 0, 0;                 !- X,Y,Z Vertex 4 {m}

OS:Surface,
  {a0af65a2-f8da-4038-bed3-815599c7736c}, !- Handle
  Surface 8,                              !- Name
  Wall,                                   !- Surface Type
  ,                                       !- Construction Name
  {50cad498-f7ce-48c2-b1b7-1cd0fdc38cde}, !- Space Name
  Ground,                                 !- Outside Boundary Condition
  ,                                       !- Outside Boundary Condition Object
  NoSun,                                  !- Sun Exposure
  NoWind,                                 !- Wind Exposure
  ,                                       !- View Factor to Ground
  ,                                       !- Number of Vertices
  4.61852778244065e-014, 9.83201913799576, 3.048, !- X,Y,Z Vertex 1 {m}
  4.61852778244065e-014, 9.83201913799576, 0, !- X,Y,Z Vertex 2 {m}
  4.61852778244065e-014, 0, 0,            !- X,Y,Z Vertex 3 {m}
  4.61852778244065e-014, 0, 3.048;        !- X,Y,Z Vertex 4 {m}

OS:Surface,
  {dfe1b50d-e57a-48d2-9f6c-04d892e2f8f2}, !- Handle
  Surface 9,                              !- Name
  Wall,                                   !- Surface Type
  ,                                       !- Construction Name
  {50cad498-f7ce-48c2-b1b7-1cd0fdc38cde}, !- Space Name
  Surface,                                !- Outside Boundary Condition
  {7b406f78-885a-4d86-8547-40fabbadbfb1}, !- Outside Boundary Condition Object
  NoSun,                                  !- Sun Exposure
  NoWind,                                 !- Wind Exposure
  ,                                       !- View Factor to Ground
  ,                                       !- Number of Vertices
  4.57200000000005, 9.83201913799576, 3.048, !- X,Y,Z Vertex 1 {m}
  4.57200000000005, 9.83201913799576, 0,  !- X,Y,Z Vertex 2 {m}
  4.61852778244065e-014, 9.83201913799576, 0, !- X,Y,Z Vertex 3 {m}
  4.61852778244065e-014, 9.83201913799576, 3.048; !- X,Y,Z Vertex 4 {m}

OS:Surface,
  {452967cf-02f7-4d11-a4bd-81a7d67cd22c}, !- Handle
  Surface 10,                             !- Name
  Wall,                                   !- Surface Type
  ,                                       !- Construction Name
  {50cad498-f7ce-48c2-b1b7-1cd0fdc38cde}, !- Space Name
  Surface,                                !- Outside Boundary Condition
  {90fb0d45-b020-409d-bf38-968739c5dc47}, !- Outside Boundary Condition Object
  NoSun,                                  !- Sun Exposure
  NoWind,                                 !- Wind Exposure
  ,                                       !- View Factor to Ground
  ,                                       !- Number of Vertices
  4.57200000000005, 0, 3.048,             !- X,Y,Z Vertex 1 {m}
  4.57200000000005, 0, 0,                 !- X,Y,Z Vertex 2 {m}
  4.57200000000005, 9.83201913799576, 0,  !- X,Y,Z Vertex 3 {m}
  4.57200000000005, 9.83201913799576, 3.048; !- X,Y,Z Vertex 4 {m}

OS:Surface,
  {798bf5ee-75fe-4b4a-88b4-9051037e9615}, !- Handle
  Surface 11,                             !- Name
  Wall,                                   !- Surface Type
  ,                                       !- Construction Name
  {50cad498-f7ce-48c2-b1b7-1cd0fdc38cde}, !- Space Name
  Surface,                                !- Outside Boundary Condition
  {97cc860c-2b62-48b4-ac16-480ba5c8f74c}, !- Outside Boundary Condition Object
  NoSun,                                  !- Sun Exposure
  NoWind,                                 !- Wind Exposure
  ,                                       !- View Factor to Ground
  ,                                       !- Number of Vertices
  4.61852778244065e-014, 0, 3.048,        !- X,Y,Z Vertex 1 {m}
  4.61852778244065e-014, 0, 0,            !- X,Y,Z Vertex 2 {m}
  4.57200000000005, 0, 0,                 !- X,Y,Z Vertex 3 {m}
  4.57200000000005, 0, 3.048;             !- X,Y,Z Vertex 4 {m}

OS:Surface,