
OS:Version,
  {dc3226d7-3420-4f70-9612-6a8ec5a6491a}, !- Handle
  2.7.2;                                  !- Version Identifier

OS:SpaceType,
  {fd7a0a6a-1d20-40b3-b19f-dcf5c5609ba4}, !- Handle
  LargeHotel Banquet,                     !- Name
  ,                                       !- Default Construction Set Name
  ,                                       !- Default Schedule Set Name
  {6b6fc7bd-93fd-47f6-83aa-717974071b7f}, !- Group Rendering Name
  ,                                       !- Design Specification Outdoor Air Object Name
  ,                                       !- Standards Template
  LargeHotel,                             !- Standards Building Type
  Banquet;                                !- Standards Space Type

OS:Rendering:Color,
  {6b6fc7bd-93fd-47f6-83aa-717974071b7f}, !- Handle
  LargeHotel Banquet,                     !- Name
  230,                                    !- Rendering Red Value
  196,                                    !- Rendering Green Value
  120;                                    !- Rendering Blue Value

OS:SpaceType,
  {6ecce370-cc81-4f04-9364-512924aaad78}, !- Handle
  LargeHotel Cafe,                        !- Name
  ,                                       !- Default Construction Set Name
  ,                                       !- Default Schedule Set Name
  {dea8e20f-17a3-41ed-b0cd-741681ccdfbe}, !- Group Rendering Name
  ,                                       !- Design Specification Outdoor Air Object Name
  ,                                       !- Standards Template
  LargeHotel,                             !- Standards Building Type
  Cafe;                                   !- Standards Space Type

OS:Rendering:Color,
  {dea8e20f-17a3-41ed-b0cd-741681ccdfbe}, !- Handle
  LargeHotel Cafe,                        !- Name
  31,                                     !- Rendering Red Value
  169,                                    !- Rendering Green Value
  34;                                     !- Rendering Blue Value

OS:SpaceType,
  {638ea776-c899-47e6-8c94-6b3e23cd3c29}, !- Handle
  LargeHotel Corridor,                    !- Name
  ,                                       !- Default Construction Set Name
  ,                                       !- Default Schedule Set Name
  {b3a98af3-2efe-4648-aee5-864864e631c8}, !- Group Rendering Name
  ,                                       !- Design Specification Outdoor Air Object Name
  ,                                       !- Standards Template
  LargeHotel,                             !- Standards Building Type
  Corridor;                               !- Standards Space Type

OS:Rendering:Color,
  {b3a98af3-2efe-4648-aee5-864864e631c8}, !- Handle
  LargeHotel Corridor,                    !- Name
  169,                                    !- Rendering Red Value
  31,                                     !- Rendering Green Value
  31;                                     !- Rendering Blue Value

OS:SpaceType,
  {2f75851a-96e9-42bc-bcda-462662d9bed0}, !- Handle
  LargeHotel GuestRoom,                   !- Name
  ,                                       !- Default Construction Set Name
  ,                                       !- Default Schedule Set Name
  {ebe6eadc-13bb-41f3-a1ae-73858a99dacf}, !- Group Rendering Name
  ,                                       !- Design Specification Outdoor Air Object Name
  ,                                       !- Standards Template
  LargeHotel,                             !- Standards Building Type
  GuestRoom;                              !- Standards Space Type

OS:Rendering:Color,
  {ebe6eadc-13bb-41f3-a1ae-73858a99dacf}, !- Handle
  LargeHotel GuestRoom,                   !- Name
  78,                                     !- Rendering Red Value
  167,                                    !- Rendering Green Value
  222;                                    !- Rendering Blue Value

OS:SpaceType,
  {bc601b71-4f0f-408e-94e0-c339b83a11db}, !- Handle
  LargeHotel Kitchen,                     !- Name
  ,                                       !- Default Construction Set Name
  ,                                       !- Default Schedule Set Name
  {a836184c-4549-4544-a533-6a779932192c}, !- Group Rendering Name
  ,                                       !- Design Specification Outdoor Air Object Name
  ,                                       !- Standards Template
  LargeHotel,                             !- Standards Building Type
  Kitchen;                                !- Standards Space Type

OS:Rendering:Color,
  {a836184c-4549-4544-a533-6a779932192c}, !- Handle
  LargeHotel Kitchen,                     !- Name
  78,                                     !- Rendering Red Value
  222,                                    !- Rendering Green Value
  133;                                    !- Rendering Blue Value

OS:SpaceType,
  {3a896a14-355f-478d-9083-d73466e0d4a4}, !- Handle
  LargeHotel Laundry,                     !- Name
  ,                                       !- Default Construction Set Name
  ,                                       !- Default Schedule Set Name
  {258078e6-ec56-4cea-94e1-1e97b8c14166}, !- Group Rendering Name
  ,                                       !- Design Specification Outdoor Air Object Name
  ,                                       !- Standards Template
  LargeHotel,                             !- Standards Building Type
  Laundry;                                !- Standards Space Type

OS:Rendering:Color,
  {258078e6-ec56-4cea-94e1-1e97b8c14166}, !- Handle
  LargeHotel Laundry,                     !- Name
  120,                                    !- Rendering Red Value
  149,                                    !- Rendering Green Value
  230;                                    !- Rendering Blue Value

OS:SpaceType,
  {fffe10e3-e18c-4d42-bf2a-571ef574dc82}, !- Handle
  LargeHotel Lobby,                       !- Name
  ,                                       !- Default Construction Set Name
  ,                                       !- Default Schedule Set Name
  {fc81ab4d-0e48-4378-b655-1c60c28a57a9}, !- Group Rendering Name
  ,                                       !- Design Specification Outdoor Air Object Name
  ,                                       !- Standards Template
  LargeHotel,                             !- Standards Building Type
  Lobby;                                  !- Standards Space Type

OS:Rendering:Color,
  {fc81ab4d-0e48-4378-b655-1c60c28a57a9}, !- Handle
  LargeHotel Lobby,                       !- Name
  230,                                    !- Rendering Red Value
  157,                                    !- Rendering Green Value
  120;                                    !- Rendering Blue Value

OS:SpaceType,
  {8b373a84-e4d0-434f-97a4-08b739df22f6}, !- Handle
  LargeHotel Mechanical,                  !- Name
  ,                                       !- Default Construction Set Name
  ,                                       !- Default Schedule Set Name
  {7f45170d-535b-4f0b-b2ff-84598425e16c}, !- Group Rendering Name
  ,                                       !- Design Specification Outdoor Air Object Name
  ,                                       !- Standards Template
  LargeHotel,                             !- Standards Building Type
  Mechanical;                             !- Standards Space Type

OS:Rendering:Color,
  {7f45170d-535b-4f0b-b2ff-84598425e16c}, !- Handle
  LargeHotel Mechanical,                  !- Name
  41,                                     !- Rendering Red Value
  31,                                     !- Rendering Green Value
  169;                                    !- Rendering Blue Value

OS:SpaceType,
  {0a24fcc2-a1ac-4f77-baf4-93ff9ad82493}, !- Handle
  LargeHotel Retail,                      !- Name
  ,                                       !- Default Construction Set Name
  ,                                       !- Default Schedule Set Name
  {dc31a560-22ba-4225-a632-6357f58de7d3}, !- Group Rendering Name
  ,                                       !- Design Specification Outdoor Air Object Name
  ,                                       !- Standards Template
  LargeHotel,                             !- Standards Building Type
  Retail;                                 !- Standards Space Type

OS:Rendering:Color,
  {dc31a560-22ba-4225-a632-6357f58de7d3}, !- Handle
  LargeHotel Retail,                      !- Name
  171,                                    !- Rendering Red Value
  222,                                    !- Rendering Green Value
  78;                                     !- Rendering Blue Value

OS:SpaceType,
  {caa19c29-23f3-41b2-a6c4-ed29fe5df6ac}, !- Handle
  LargeHotel Storage,                     !- Name
  ,                                       !- Default Construction Set Name
  ,                                       !- Default Schedule Set Name
  {e27fed87-f07c-48bd-8a2e-a57c48947f4b}, !- Group Rendering Name
  ,                                       !- Design Specification Outdoor Air Object Name
  ,                                       !- Standards Template
  LargeHotel,                             !- Standards Building Type
  Storage;                                !- Standards Space Type

OS:Rendering:Color,
  {e27fed87-f07c-48bd-8a2e-a57c48947f4b}, !- Handle
  LargeHotel Storage,                     !- Name
  120,                                    !- Rendering Red Value
  149,                                    !- Rendering Green Value
  230;                                    !- Rendering Blue Value

OS:SpaceType,
  {348911fe-7fd2-41a6-b169-a0dc1a9f4429}, !- Handle
  FullServiceRestaurant Dining,           !- Name
  ,                                       !- Default Construction Set Name
  ,                                       !- Default Schedule Set Name
  {00fb4b1c-9cdd-4bcf-be0e-a7816fa20afb}, !- Group Rendering Name
  ,                                       !- Design Specification Outdoor Air Object Name
  ,                                       !- Standards Template
  FullServiceRestaurant,                  !- Standards Building Type
  Dining;                                 !- Standards Space Type

OS:Rendering:Color,
  {00fb4b1c-9cdd-4bcf-be0e-a7816fa20afb}, !- Handle
  FullServiceRestaurant Dining,           !- Name
  31,                                     !- Rendering Red Value
  169,                                    !- Rendering Green Value
  34;                                     !- Rendering Blue Value

OS:SpaceType,
  {8624ebf0-30cb-483c-be33-a5ee15dc4189}, !- Handle
  FullServiceRestaurant Kitchen,          !- Name
  ,                                       !- Default Construction Set Name
  ,                                       !- Default Schedule Set Name
  {d1dc0db7-24bf-4f86-861a-7ad654b4499c}, !- Group Rendering Name
  ,                                       !- Design Specification Outdoor Air Object Name
  ,                                       !- Standards Template
  FullServiceRestaurant,                  !- Standards Building Type
  Kitchen;                                !- Standards Space Type

OS:Rendering:Color,
  {d1dc0db7-24bf-4f86-861a-7ad654b4499c}, !- Handle
  FullServiceRestaurant Kitchen,          !- Name
  78,                                     !- Rendering Red Value
  222,                                    !- Rendering Green Value
  133;                                    !- Rendering Blue Value

OS:Building,
  {36c23b84-a0fa-4a70-ada8-a9cf9dc67251}, !- Handle
  90.1-2004|LargeHotel|FullServiceRestaurant, !- Name
  ,                                       !- Building Sector Type
  ,                                       !- North Axis {deg}
  ,                                       !- Nominal Floor to Floor Height {m}
  ,                                       !- Space Type Name
  ,                                       !- Default Construction Set Name
  ;                                       !- Default Schedule Set Name

OS:Site,
  {e0cfc1f3-6323-4055-864a-6b3f1b16c358}, !- Handle
  Site 1,                                 !- Name
  ,                                       !- Latitude {deg}
  ,                                       !- Longitude {deg}
  ,                                       !- Time Zone {hr}
  ,                                       !- Elevation {m}
  ;                                       !- Terrain

OS:BuildingStory,
  {8b20f7a1-6d9e-4e5b-82ad-8c60d955c7ab}, !- Handle
  Story Ground,                           !- Name
  0,                                      !- Nominal Z Coordinate {m}
  3.048,                                  !- Nominal Floor to Floor Height {m}
  ,                                       !- Default Construction Set Name
  ,                                       !- Default Schedule Set Name
  ;                                       !- Group Rendering Name

OS:Space,
  {23869315-7e0c-49f3-bc32-36644120eb46}, !- Handle
  LargeHotel Lobby A end_a - Story Ground, !- Name
  {fffe10e3-e18c-4d42-bf2a-571ef574dc82}, !- Space Type Name
  ,                                       !- Default Construction Set Name
  ,                                       !- Default Schedule Set Name
  -0,                                     !- Direction of Relative North {deg}
  -62.8361297344131,                      !- X Origin {m}
  -12.3208097518457,                      !- Y Origin {m}
  0,                                      !- Z Origin {m}
  {8b20f7a1-6d9e-4e5b-82ad-8c60d955c7ab}, !- Building Story Name
  {2a05579a-88ae-4a72-abf2-41ac7da65c06}; !- Thermal Zone Name

OS:Surface,
  {bedd58f9-cbea-496c-b9c4-beb253c2a6d2}, !- Handle
  Surface 1,                              !- Name
  Floor,                                  !- Surface Type
  ,                                       !- Construction Name
  {23869315-7e0c-49f3-bc32-36644120eb46}, !- Space Name
  Ground,                                 !- Outside Boundary Condition
  ,                                       !- Outside Boundary Condition Object
  NoSun,                                  !- Sun Exposure
  NoWind,                                 !- Wind Exposure
  ,                                       !- View Factor to Ground
  ,                                       !- Number of Vertices
  4.9737991503207e-014, 1.59872115546023e-014, 0, !- X,Y,Z Vertex 1 {m}
  4.9737991503207e-014, 4.57199999999999, 0, !- X,Y,Z Vertex 2 {m}
  4.57200000000005, 4.57199999999999, 0,  !- X,Y,Z Vertex 3 {m}
  4.57200000000005, 1.59872115546023e-014, 0; !- X,Y,Z Vertex 4 {m}

OS:Surface,
  {2bc85500-f6d2-4b69-aae2-52f3c1f51bc8}, !- Handle
  Surface 2,                              !- Name
  Wall,                                   !- Surface Type
  ,                                       !- Construction Name
  {23869315-7e0c-49f3-bc32-36644120eb46}, !- Space Name
  Outdoors,                               !- Outside Boundary Condition
  ,                                       !- Outside Boundary Condition Object
  SunExposed,                             !- Sun Exposure
  WindExposed,                            !- Wind Exposure
  ,                                       !- View Factor to Ground
  ,                                       !- Number of Vertices
  4.9737991503207e-014, 4.57199999999999, 3.048, !- X,Y,Z Vertex 1 {m}
  4.9737991503207e-014, 4.57199999999999, 0, !- X,Y,Z Vertex 2 {m}
  4.9737991503207e-014, 1.59872115546023e-014, 0, !- X,Y,Z Vertex 3 {m}
  4.9737991503207e-014, 1.59872115546023e-014, 3.048; !- X,Y,Z Vertex 4 {m}

OS:Surface,
  {dcbead62-50d4-4bb6-9e6e-941e0553bebf}, !- Handle
  Surface 3,                              !- Name
  Wall,                                   !- Surface Type
  ,                                       !- Construction Name
  {23869315-7e0c-49f3-bc32-36644120eb46}, !- Space Name
  Surface,                                !- Outside Boundary Condition
  {771214b1-ba2b-4897-8382-8a3cf461aec7}, !- Outside Boundary Condition Object
  NoSun,                                  !- Sun Exposure
  NoWind,                                 !- Wind Exposure
  ,                                       !- View Factor to Ground
  ,                                       !- Number of Vertices
  4.57200000000005, 4.57199999999999, 3.048, !- X,Y,Z Vertex 1 {m}
  4.57200000000005, 4.57199999999999, 0,  !- X,Y,Z Vertex 2 {m}
  4.9737991503207e-014, 4.57199999999999, 0, !- X,Y,Z Vertex 3 {m}
  4.9737991503207e-014, 4.57199999999999, 3.048; !- X,Y,Z Vertex 4 {m}

OS:Surface,
  {70ca7717-bb46-4c78-8e55-232265c705f3}, !- Handle
  Surface 4,                              !- Name
  Wall,                                   !- Surface Type
  ,                                       !- Construction Name
  {23869315-7e0c-49f3-bc32-36644120eb46}, !- Space Name
  Surface,                                !- Outside Boundary Condition
  {54d1c315-f4c9-446b-98c0-92f32055416a}, !- Outside Boundary Condition Object
  NoSun,                                  !- Sun Exposure
  NoWind,                                 !- Wind Exposure
  ,                                       !- View Factor to Ground
  ,                                       !- Number of Vertices
  4.57200000000005, 1.59872115546023e-014, 3.048, !- X,Y,Z Vertex 1 {m}
  4.57200000000005, 1.59872115546023e-014, 0, !- X,Y,Z Vertex 2 {m}
  4.57200000000005, 4.57199999999999, 0,  !- X,Y,Z Vertex 3 {m}
  4.57200000000005, 4.57199999999999, 3.048; !- X,Y,Z Vertex 4 {m}

OS:Surface,
  {626e44c5-0b93-41d5-b481-b2d5c764f8b0}, !- Handle
  Surface 5,                              !- Name
  Wall,                                   !- Surface Type
  ,                                       !- Construction Name
  {23869315-7e0c-49f3-bc32-36644120eb46}, !- Space Name
  Outdoors,                               !- Outside Boundary Condition
  ,                                       !- Outside Boundary Condition Object
  SunExposed,                             !- Sun Exposure
  WindExposed,                            !- Wind Exposure
  ,                                       !- View Factor to Ground
  ,                                       !- Number of Vertices
  4.9737991503207e-014, 1.59872115546023e-014, 3.048, !- X,Y,Z Vertex 1 {m}
  4.9737991503207e-014, 1.59872115546023e-014, 0, !- X,Y,Z Vertex 2 {m}
  4.57200000000005, 1.59872115546023e-014, 0, !- X,Y,Z Vertex 3 {m}
  4.57200000000005, 1.59872115546023e-014, 3.048; !- X,Y,Z Vertex 4 {m}

OS:Surface,
  {bc343b7b-5b3c-4e74-879a-8f969af88163}, !- Handle
  Surface 6,                              !- Name
  RoofCeiling,                            !- Surface Type
  ,                                       !- Construction Name
  {23869315-7e0c-49f3-bc32-36644120eb46}, !- Space Name
  Surface,                                !- Outside Boundary Condition
  {0665c75a-6ce9-446a-b223-31b7d7b78110}, !- Outside Boundary Condition Object
  NoSun,                                  !- Sun Exposure
  NoWind,                                 !- Wind Exposure
  ,                                       !- View Factor to Ground
  ,                                       !- Number of Vertices
  4.57200000000005, 1.59872115546023e-014, 3.048, !- X,Y,Z Vertex 1 {m}
  4.57200000000005, 4.57199999999999, 3.048, !- X,Y,Z Vertex 2 {m}
  4.9737991503207e-014, 4.57199999999999, 3.048, !- X,Y,Z Vertex 3 {m}
  4.9737991503207e-014, 1.59872115546023e-014, 3.048; !- X,Y,Z Vertex 4 {m}

OS:ThermalZone,
  {2a05579a-88ae-4a72-abf2-41ac7da65c06}, !- Handle
  Zone LargeHotel Lobby A end_a - Story Ground, !- Name
  1,                                      !- Multiplier
  ,                                       !- Ceiling Height {m}
  ,                                       !- Volume {m3}
  ,                                       !- Floor Area {m2}
  ,                                       !- Zone Inside Convection Algorithm
  ,                                       !- Zone Outside Convection Algorithm
  ,                                       !- Zone Conditioning Equipment List Name
  {d911b128-76fa-4e5a-af19-d95452c74c31}, !- Zone Air Inlet Port List
  {2ecf2462-446b-4d5e-8dde-a8728ecfabee}, !- Zone Air Exhaust Port List
  {a9149d13-3e38-4934-85ed-275222fb5407}, !- Zone Air Node Name
  {34bed275-bfb9-4209-9f67-d556826ef010}, !- Zone Return Air Port List
  ,                                       !- Primary Daylighting Control Name
  ,                                       !- Fraction of Zone Controlled by Primary Daylighting Control
  ,                                       !- Secondary Daylighting Control Name
  ,                                       !- Fraction of Zone Controlled by Secondary Daylighting Control
  ,                                       !- Illuminance Map Name
  ,                                       !- Group Rendering Name
  ,                                       !- Thermostat Name
  No;                                     !- Use Ideal Air Loads

OS:Node,
  {ad743b84-9e60-4660-9c89-ec6f9a5676d2}, !- Handle
  Node 1,                                 !- Name
  {a9149d13-3e38-4934-85ed-275222fb5407}, !- Inlet Port
  ;                                       !- Outlet Port

OS:Connection,
  {a9149d13-3e38-4934-85ed-275222fb5407}, !- Handle
  {4aae72dc-0dd6-43b1-a1b1-7b7eab84cde5}, !- Name
  {2a05579a-88ae-4a72-abf2-41ac7da65c06}, !- Source Object
  11,                                     !- Outlet Port
  {ad743b84-9e60-4660-9c89-ec6f9a5676d2}, !- Target Object
  2;                                      !- Inlet Port

OS:PortList,
  {d911b128-76fa-4e5a-af19-d95452c74c31}, !- Handle
  {df9d2191-07f9-45fa-8d88-5e70fadcf13b}, !- Name
  {2a05579a-88ae-4a72-abf2-41ac7da65c06}; !- HVAC Component

OS:PortList,
  {2ecf2462-446b-4d5e-8dde-a8728ecfabee}, !- Handle
  {52865a82-bcc6-4c25-9027-ab20a267ea2c}, !- Name
  {2a05579a-88ae-4a72-abf2-41ac7da65c06}; !- HVAC Component

OS:PortList,
  {34bed275-bfb9-4209-9f67-d556826ef010}, !- Handle
  {62bfe230-981f-427c-81ef-70dab9cd05cb}, !- Name
  {2a05579a-88ae-4a72-abf2-41ac7da65c06}; !- HVAC Component

OS:Sizing:Zone,
  {24422260-44b1-4c3b-b228-5f4b9531520f}, !- Handle
  {2a05579a-88ae-4a72-abf2-41ac7da65c06}, !- Zone or ZoneList Name
  SupplyAirTemperature,                   !- Zone Cooling Design Supply Air Temperature Input Method
  14,                                     !- Zone Cooling Design Supply Air Temperature {C}
  11.11,                                  !- Zone Cooling Design Supply Air Temperature Difference {deltaC}
  SupplyAirTemperature,                   !- Zone Heating Design Supply Air Temperature Input Method
  40,                                     !- Zone Heating Design Supply Air Temperature {C}
  11.11,                                  !- Zone Heating Design Supply Air Temperature Difference {deltaC}
  0.0085,                                 !- Zone Cooling Design Supply Air Humidity Ratio {kg-H2O/kg-air}
  0.008,                                  !- Zone Heating Design Supply Air Humidity Ratio {kg-H2O/kg-air}
  ,                                       !- Zone Heating Sizing Factor
  ,                                       !- Zone Cooling Sizing Factor
  DesignDay,                              !- Cooling Design Air Flow Method
  ,                                       !- Cooling Design Air Flow Rate {m3/s}
  ,                                       !- Cooling Minimum Air Flow per Zone Floor Area {m3/s-m2}
  ,                                       !- Cooling Minimum Air Flow {m3/s}
  ,                                       !- Cooling Minimum Air Flow Fraction
  DesignDay,                              !- Heating Design Air Flow Method
  ,                                       !- Heating Design Air Flow Rate {m3/s}
  ,                                       !- Heating Maximum Air Flow per Zone Floor Area {m3/s-m2}
  ,                                       !- Heating Maximum Air Flow {m3/s}
  ,                                       !- Heating Maximum Air Flow Fraction
  ,                                       !- Design Zone Air Distribution Effectiveness in Cooling Mode
  ,                                       !- Design Zone Air Distribution Effectiveness in Heating Mode
  No,                                     !- Account for Dedicated Outdoor Air System
  NeutralSupplyAir,                       !- Dedicated Outdoor Air System Control Strategy
  autosize,                               !- Dedicated Outdoor Air Low Setpoint Temperature for Design {C}
  autosize;                               !- Dedicated Outdoor Air High Setpoint Temperature for Design {C}

OS:ZoneHVAC:EquipmentList,
  {097377c2-d543-4bb3-949d-8e2881c136e5}, !- Handle
  Zone HVAC Equipment List 1,             !- Name
  {2a05579a-88ae-4a72-abf2-41ac7da65c06}; !- Thermal Zone

OS:Space,
  {079e9c96-981e-4119-8981-6c01bfa074df}, !- Handle
  LargeHotel Lobby B end_a - Story Ground, !- Name
  {fffe10e3-e18c-4d42-bf2a-571ef574dc82}, !- Space Type Name
  ,                                       !- Default Construction Set Name
  ,                                       !- Default Schedule Set Name
  -0,                                     !- Direction of Relative North {deg}
  -62.8361297344131,                      !- X Origin {m}
  -7.74880975184572,                      !- Y Origin {m}
  0,                                      !- Z Origin {m}
  {8b20f7a1-6d9e-4e5b-82ad-8c60d955c7ab}, !- Building Story Name
  {17dc8bae-a495-4a9e-a881-f35fe63df702}; !- Thermal Zone Name

OS:Surface,
  {fa405e7f-7398-4a40-b98d-e55fbabd61f6}, !- Handle
  Surface 7,                              !- Name
  Floor,                                  !- Surface Type
  ,                                       !- Construction Name
  {079e9c96-981e-4119-8981-6c01bfa074df}, !- Space Name
  Ground,                                 !- Outside Boundary Condition
  ,                                       !- Outside Boundary Condition Object
  NoSun,                                  !- Sun Exposure
  NoWind,                                 !- Wind Exposure
  ,                                       !- View Factor to Ground
  ,                                       !- Number of Vertices
  4.9737991503207e-014, -5.32907051820075e-015, 0, !- X,Y,Z Vertex 1 {m}
  4.9737991503207e-014, 15.4976195036914, 0, !- X,Y,Z Vertex 2 {m}
  4.57200000000005, 15.4976195036914, 0,  !- X,Y,Z Vertex 3 {m}
  4.57200000000005, -5.32907051820075e-015, 0; !- X,Y,Z Vertex 4 {m}

OS:Surface,
  {d90ba823-6834-4bf3-aa2b-566295c1b174}, !- Handle
  Surface 8,                              !- Name
  Wall,                                   !- Surface Type
  ,                                       !- Construction Name
  {079e9c96-981e-4119-8981-6c01bfa074df}, !- Space Name
  Outdoors,                               !- Outside Boundary Condition
  ,                                       !- Outside Boundary Condition Object
  SunExposed,                             !- Sun Exposure
  WindExposed,                            !- Wind Exposure
  ,                                       !- View Factor to Ground
  ,                                       !- Number of Vertices
  4.9737991503207e-014, 15.4976195036914, 3.048, !- X,Y,Z Vertex 1 {m}
  4.9737991503207e-014, 15.4976195036914, 0, !- X,Y,Z Vertex 2 {m}
  4.9737991503207e-014, -5.32907051820075e-015, 0, !- X,Y,Z Vertex 3 {m}
  4.9737991503207e-014, -5.32907051820075e-015, 3.048; !- X,Y,Z Vertex 4 {m}

OS:Surface,
  {3d429061-d956-473a-9e24-de4e48e202dc}, !- Handle
  Surface 9,                              !- Name
  Wall,                                   !- Surface Type
  ,                                       !- Construction Name
  {079e9c96-981e-4119-8981-6c01bfa074df}, !- Space Name
  Surface,                                !- Outside Boundary Condition
  {6c013c06-63d4-49c1-8af4-d13e55c25984}, !- Outside Boundary Condition Object
  NoSun,                                  !- Sun Exposure
  NoWind,                                 !- Wind Exposure
  ,                                       !- View Factor to Ground
  ,                                       !- Number of Vertices
  4.57200000000005, 15.4976195036914, 3.048, !- X,Y,Z Vertex 1 {m}
  4.57200000000005, 15.4976195036914, 0,  !- X,Y,Z Vertex 2 {m}
  4.9737991503207e-014, 15.4976195036914, 0, !- X,Y,Z Vertex 3 {m}
  4.9737991503207e-014, 15.4976195036914, 3.048; !- X,Y,Z Vertex 4 {m}

OS:Surface,
  {0792d486-21f3-415e-afbb-89bdb52a963b}, !- Handle
  Surface 10,                             !- Name
  Wall,                                   !- Surface Type
  ,                                       !- Construction Name
  {079e9c96-981e-4119-8981-6c01bfa074df}, !- Space Name
  Surface,                                !- Outside Boundary Condition
  {446b5976-911f-408d-9971-f8de4a22e57d}, !- Outside Boundary Condition Object
  NoSun,                                  !- Sun Exposure
  NoWind,                                 !- Wind Exposure
  ,                                       !- View Factor to Ground
  ,                                       !- Number of Vertices
  4.57200000000005, -5.32907051820075e-015, 3.048, !- X,Y,Z Vertex 1 {m}
  4.57200000000005, -5.32907051820075e-015, 0, !- X,Y,Z Vertex 2 {m}
  4.57200000000005, 15.4976195036914, 0,  !- X,Y,Z Vertex 3 {m}
  4.57200000000005, 15.4976195036914, 3.048; !- X,Y,Z Vertex 4 {m}

OS:Surface,
  {771214b1-ba2b-4897-8382-8a3cf461aec7}, !- Handle
  Surface 11,                             !- Name
  Wall,                                   !- Surface Type
  ,                                       !- Construction Name
  {079e9c96-981e-4119-8981-6c01bfa074df}, !- Space Name
  Surface,                                !- Outside Boundary Condition
  {dcbead62-50d4-4bb6-9e6e-941e0553bebf}, !- Outside Boundary Condition Object
  NoSun,                                  !- Sun Exposure
  NoWind,                                 !- Wind Exposure
  ,                                       !- View Factor to Ground
  ,                                       !- Number of Vertices
  4.9737991503207e-014, -5.32907051820075e-015, 3.048, !- X,Y,Z Vertex 1 {m}