
OS:Version,
  {5896f4db-8afd-4315-a42c-f67f8c73589e}, !- Handle
  2.7.2;                                  !- Version Identifier

OS:SpaceType,
  {0e833c2a-b74e-4e64-8086-6a47654fba6b}, !- Handle
  LargeHotel Banquet,                     !- Name
  ,                                       !- Default Construction Set Name
  ,                                       !- Default Schedule Set Name
  {80b3c91f-8517-44ad-ab4f-228dc0d75854}, !- Group Rendering Name
  ,                                       !- Design Specification Outdoor Air Object Name
  ,                                       !- Standards Template
  LargeHotel,                             !- Standards Building Type
  Banquet;                                !- Standards Space Type

OS:Rendering:Color,
  {80b3c91f-8517-44ad-ab4f-228dc0d75854}, !- Handle
  LargeHotel Banquet,                     !- Name
  230,                                    !- Rendering Red Value
  196,                                    !- Rendering Green Value
  120;                                    !- Rendering Blue Value

OS:SpaceType,
  {9a4d20ad-093e-46ab-9e77-be7dd0b70c71}, !- Handle
  LargeHotel Cafe,                        !- Name
  ,                                       !- Default Construction Set Name
  ,                                       !- Default Schedule Set Name
  {99111f42-b91a-4b84-9327-6ddebb44a4ab}, !- Group Rendering Name
  ,                                       !- Design Specification Outdoor Air Object Name
  ,                                       !- Standards Template
  LargeHotel,                             !- Standards Building Type
  Cafe;                                   !- Standards Space Type

OS:Rendering:Color,
  {99111f42-b91a-4b84-9327-6ddebb44a4ab}, !- Handle
  LargeHotel Cafe,                        !- Name
  31,                                     !- Rendering Red Value
  169,                                    !- Rendering Green Value
  34;                                     !- Rendering Blue Value

OS:SpaceType,
  {9037f8cc-1401-4381-beb0-8ebd01214a7c}, !- Handle
  LargeHotel Corridor,                    !- Name
  ,                                       !- Default Construction Set Name
  ,                                       !- Default Schedule Set Name
  {b763d1b1-e249-4603-be6d-2933b330efa6}, !- Group Rendering Name
  ,                                       !- Design Specification Outdoor Air Object Name
  ,                                       !- Standards Template
  LargeHotel,                             !- Standards Building Type
  Corridor;                               !- Standards Space Type

OS:Rendering:Color,
  {b763d1b1-e249-4603-be6d-2933b330efa6}, !- Handle
  LargeHotel Corridor,                    !- Name
  169,                                    !- Rendering Red Value
  31,                                     !- Rendering Green Value
  31;                                     !- Rendering Blue Value

OS:SpaceType,
  {39fa757d-9952-461d-b269-6ecb246be245}, !- Handle
  LargeHotel GuestRoom,                   !- Name
  ,                                       !- Default Construction Set Name
  ,                                       !- Default Schedule Set Name
  {0780b915-d8f3-4bcd-8eee-e82d029d71ae}, !- Group Rendering Name
  ,                                       !- Design Specification Outdoor Air Object Name
  ,                                       !- Standards Template
  LargeHotel,                             !- Standards Building Type
  GuestRoom;                              !- Standards Space Type

OS:Rendering:Color,
  {0780b915-d8f3-4bcd-8eee-e82d029d71ae}, !- Handle
  LargeHotel GuestRoom,                   !- Name
  78,                                     !- Rendering Red Value
  167,                                    !- Rendering Green Value
  222;                                    !- Rendering Blue Value

OS:SpaceType,
  {b6b6052a-81aa-404b-a76f-e13d5c4aaf5c}, !- Handle
  LargeHotel Kitchen,                     !- Name
  ,                                       !- Default Construction Set Name
  ,                                       !- Default Schedule Set Name
  {da265ee3-219a-4085-b59c-2f3d58e7a11f}, !- Group Rendering Name
  ,                                       !- Design Specification Outdoor Air Object Name
  ,                                       !- Standards Template
  LargeHotel,                             !- Standards Building Type
  Kitchen;                                !- Standards Space Type

OS:Rendering:Color,
  {da265ee3-219a-4085-b59c-2f3d58e7a11f}, !- Handle
  LargeHotel Kitchen,                     !- Name
  78,                                     !- Rendering Red Value
  222,                                    !- Rendering Green Value
  133;                                    !- Rendering Blue Value

OS:SpaceType,
  {1dc6671f-436b-4fc1-92b2-e3b61dc87317}, !- Handle
  LargeHotel Laundry,                     !- Name
  ,                                       !- Default Construction Set Name
  ,                                       !- Default Schedule Set Name
  {aad31b0d-b885-4ecb-ac6e-cd68c97a8b52}, !- Group Rendering Name
  ,                                       !- Design Specification Outdoor Air Object Name
  ,                                       !- Standards Template
  LargeHotel,                             !- Standards Building Type
  Laundry;                                !- Standards Space Type

OS:Rendering:Color,
  {aad31b0d-b885-4ecb-ac6e-cd68c97a8b52}, !- Handle
  LargeHotel Laundry,                     !- Name
  120,                                    !- Rendering Red Value
  149,                                    !- Rendering Green Value
  230;                                    !- Rendering Blue Value

OS:SpaceType,
  {023fbed0-18b3-45c9-9229-93b5f0d0421b}, !- Handle
  LargeHotel Lobby,                       !- Name
  ,                                       !- Default Construction Set Name
  ,                                       !- Default Schedule Set Name
  {6e9463a6-040d-4c74-91bf-c5f7088b7af0}, !- Group Rendering Name
  ,                                       !- Design Specification Outdoor Air Object Name
  ,                                       !- Standards Template
  LargeHotel,                             !- Standards Building Type
  Lobby;                                  !- Standards Space Type

OS:Rendering:Color,
  {6e9463a6-040d-4c74-91bf-c5f7088b7af0}, !- Handle
  LargeHotel Lobby,                       !- Name
  230,                                    !- Rendering Red Value
  157,                                    !- Rendering Green Value
  120;                                    !- Rendering Blue Value

OS:SpaceType,
  {a232be06-4aed-4932-8467-e79411f36611}, !- Handle
  LargeHotel Mechanical,                  !- Name
  ,                                       !- Default Construction Set Name
  ,                                       !- Default Schedule Set Name
  {1dccb872-7165-409e-9fb0-7627416b6001}, !- Group Rendering Name
  ,                                       !- Design Specification Outdoor Air Object Name
  ,                                       !- Standards Template
  LargeHotel,                             !- Standards Building Type
  Mechanical;                             !- Standards Space Type

OS:Rendering:Color,
  {1dccb872-7165-409e-9fb0-7627416b6001}, !- Handle
  LargeHotel Mechanical,                  !- Name
  41,                                     !- Rendering Red Value
  31,                                     !- Rendering Green Value
  169;                                    !- Rendering Blue Value

OS:SpaceType,
  {ef96c990-51f9-4e74-bfae-f6f1ad9f6cbf}, !- Handle
  LargeHotel Retail,                      !- Name
  ,                                       !- Default Construction Set Name
  ,                                       !- Default Schedule Set Name
  {d2cf0c2f-f2b9-4cff-a2a9-0157f29ac24a}, !- Group Rendering Name
  ,                                       !- Design Specification Outdoor Air Object Name
  ,                                       !- Standards Template
  LargeHotel,                             !- Standards Building Type
  Retail;                                 !- Standards Space Type

OS:Rendering:Color,
  {d2cf0c2f-f2b9-4cff-a2a9-0157f29ac24a}, !- Handle
  LargeHotel Retail,                      !- Name
  171,                                    !- Rendering Red Value
  222,                                    !- Rendering Green Value
  78;                                     !- Rendering Blue Value

OS:SpaceType,
  {72bef8cb-3ce9-4dd0-9a85-a8af47ba0e46}, !- Handle
  LargeHotel Storage,                     !- Name
  ,                                       !- Default Construction Set Name
  ,                                       !- Default Schedule Set Name
  {801a4471-3ed9-4153-9a40-ec744290eedc}, !- Group Rendering Name
  ,                                       !- Design Specification Outdoor Air Object Name
  ,                                       !- Standards Template
  LargeHotel,                             !- Standards Building Type
  Storage;                                !- Standards Space Type

OS:Rendering:Color,
  {801a4471-3ed9-4153-9a40-ec744290eedc}, !- Handle
  LargeHotel Storage,                     !- Name
  120,                                    !- Rendering Red Value
  149,                                    !- Rendering Green Value
  230;                                    !- Rendering Blue Value

OS:SpaceType,
  {bf394e04-164c-4824-8eae-eee27a548bb7}, !- Handle
  FullServiceRestaurant Dining,           !- Name
  ,                                       !- Default Construction Set Name
  ,                                       !- Default Schedule Set Name
  {68273641-e9ec-442c-883b-070e7626c8e9}, !- Group Rendering Name
  ,                                       !- Design Specification Outdoor Air Object Name
  ,                                       !- Standards Template
  FullServiceRestaurant,                  !- Standards Building Type
  Dining;                                 !- Standards Space Type

OS:Rendering:Color,
  {68273641-e9ec-442c-883b-070e7626c8e9}, !- Handle
  FullServiceRestaurant Dining,           !- Name
  31,                                     !- Rendering Red Value
  169,                                    !- Rendering Green Value
  34;                                     !- Rendering Blue Value

OS:SpaceType,
  {3e7d5c7b-dc03-4156-9687-b3f424fdef5b}, !- Handle
  FullServiceRestaurant Kitchen,          !- Name
  ,                                       !- Default Construction Set Name
  ,                                       !- Default Schedule Set Name
  {760e9e8c-49dc-405a-aa92-873275c434b1}, !- Group Rendering Name
  ,                                       !- Design Specification Outdoor Air Object Name
  ,                                       !- Standards Template
  FullServiceRestaurant,                  !- Standards Building Type
  Kitchen;                                !- Standards Space Type

OS:Rendering:Color,
  {760e9e8c-49dc-405a-aa92-873275c434b1}, !- Handle
  FullServiceRestaurant Kitchen,          !- Name
  78,                                     !- Rendering Red Value
  222,                                    !- Rendering Green Value
  133;                                    !- Rendering Blue Value

OS:Building,
  {cdb0a7a7-79c7-4b6b-aa56-d8df813d9b56}, !- Handle
  90.1-2004|LargeHotel|FullServiceRestaurant, !- Name
  ,                                       !- Building Sector Type
  ,                                       !- North Axis {deg}
  ,                                       !- Nominal Floor to Floor Height {m}
  ,                                       !- Space Type Name
  ,                                       !- Default Construction Set Name
  ;                                       !- Default Schedule Set Name

OS:Site,
  {af7c0654-b09e-4523-9482-f2d34a241e85}, !- Handle
  Site 1,                                 !- Name
  ,                                       !- Latitude {deg}
  ,                                       !- Longitude {deg}
  ,                                       !- Time Zone {hr}
  ,                                       !- Elevation {m}
  ;                                       !- Terrain

OS:BuildingStory,
  {7a66d618-85bc-474b-a5e9-a7bcc04350d2}, !- Handle
  Story Ground,                           !- Name
  0,                                      !- Nominal Z Coordinate {m}
  3.048,                                  !- Nominal Floor to Floor Height {m}
  ,                                       !- Default Construction Set Name
  ,                                       !- Default Schedule Set Name
  ;                                       !- Group Rendering Name

OS:Space,
  {6968456c-583d-4e64-87c6-e57021e8fdd4}, !- Handle
  FullServiceRestaurant Kitchen A end_a - Story Ground, !- Name
  {3e7d5c7b-dc03-4156-9687-b3f424fdef5b}, !- Space Type Name
  ,                                       !- Default Construction Set Name
  ,                                       !- Default Schedule Set Name
  -0,                                     !- Direction of Relative North {deg}
  -24.9838407775906,                      !- X Origin {m}
  -11.6203910593445,                      !- Y Origin {m}
  0,                                      !- Z Origin {m}
  {7a66d618-85bc-474b-a5e9-a7bcc04350d2}, !- Building Story Name
  {dfd5a08e-4d1d-41f5-9e09-881f793b4322}; !- Thermal Zone Name

OS:Surface,
  {5cd60a6a-6192-4526-bb36-79ac550b4bbc}, !- Handle
  Surface 1,                              !- Name
  Floor,                                  !- Surface Type
  ,                                       !- Construction Name
  {6968456c-583d-4e64-87c6-e57021e8fdd4}, !- Space Name
  Ground,                                 !- Outside Boundary Condition
  ,                                       !- Outside Boundary Condition Object
  NoSun,                                  !- Sun Exposure
  NoWind,                                 !- Wind Exposure
  ,                                       !- View Factor to Ground
  ,                                       !- Number of Vertices
  2.1316282072803e-014, -2.48689957516035e-014, 0, !- X,Y,Z Vertex 1 {m}
  2.1316282072803e-014, 4.572, 0,         !- X,Y,Z Vertex 2 {m}
  4.57200000000002, 4.572, 0,             !- X,Y,Z Vertex 3 {m}
  4.57200000000002, -2.48689957516035e-014, 0; !- X,Y,Z Vertex 4 {m}

OS:Surface,
  {d6ee6124-084b-4e81-a2ad-fee4ce103944}, !- Handle
  Surface 2,                              !- Name
  Wall,                                   !- Surface Type
  ,                                       !- Construction Name
  {6968456c-583d-4e64-87c6-e57021e8fdd4}, !- Space Name
  Adiabatic,                              !- Outside Boundary Condition
  ,                                       !- Outside Boundary Condition Object
  NoSun,                                  !- Sun Exposure
  NoWind,                                 !- Wind Exposure
  ,                                       !- View Factor to Ground
  ,                                       !- Number of Vertices
  2.1316282072803e-014, 4.572, 3.048,     !- X,Y,Z Vertex 1 {m}
  2.1316282072803e-014, 4.572, 0,         !- X,Y,Z Vertex 2 {m}
  2.1316282072803e-014, -2.48689957516035e-014, 0, !- X,Y,Z Vertex 3 {m}
  2.1316282072803e-014, -2.48689957516035e-014, 3.048; !- X,Y,Z Vertex 4 {m}

OS:Surface,
  {3b50cec9-54e6-47e2-9936-17315b1f1740}, !- Handle
  Surface 3,                              !- Name
  Wall,                                   !- Surface Type
  ,                                       !- Construction Name
  {6968456c-583d-4e64-87c6-e57021e8fdd4}, !- Space Name
  Surface,                                !- Outside Boundary Condition
  {86a0abe8-db62-49e2-8d0b-7309165f2e90}, !- Outside Boundary Condition Object
  NoSun,                                  !- Sun Exposure
  NoWind,                                 !- Wind Exposure
  ,                                       !- View Factor to Ground
  ,                                       !- Number of Vertices
  4.57200000000002, 4.572, 3.048,         !- X,Y,Z Vertex 1 {m}
  4.57200000000002, 4.572, 0,             !- X,Y,Z Vertex 2 {m}
  2.1316282072803e-014, 4.572, 0,         !- X,Y,Z Vertex 3 {m}
  2.1316282072803e-014, 4.572, 3.048;     !- X,Y,Z Vertex 4 {m}

OS:Surface,
  {583ac775-140d-45a9-9a4a-17b1ad530fa5}, !- Handle
  Surface 4,                              !- Name
  Wall,                                   !- Surface Type
  ,                                       !- Construction Name
  {6968456c-583d-4e64-87c6-e57021e8fdd4}, !- Space Name
  Surface,                                !- Outside Boundary Condition
  {148ea350-2f49-47c5-8119-0692b016cbf7}, !- Outside Boundary Condition Object
  NoSun,                                  !- Sun Exposure
  NoWind,                                 !- Wind Exposure
  ,                                       !- View Factor to Ground
  ,                                       !- Number of Vertices
  4.57200000000002, -2.48689957516035e-014, 3.048, !- X,Y,Z Vertex 1 {m}
  4.57200000000002, -2.48689957516035e-014, 0, !- X,Y,Z Vertex 2 {m}
  4.57200000000002, 4.572, 0,             !- X,Y,Z Vertex 3 {m}
  4.57200000000002, 4.572, 3.048;         !- X,Y,Z Vertex 4 {m}

OS:Surface,
  {650e33a0-110b-499b-b800-3974e0d1a353}, !- Handle
  Surface 5,                              !- Name
  Wall,                                   !- Surface Type
  ,                                       !- Construction Name
  {6968456c-583d-4e64-87c6-e57021e8fdd4}, !- Space Name
  Outdoors,                               !- Outside Boundary Condition
  ,                                       !- Outside Boundary Condition Object
  SunExposed,                             !- Sun Exposure
  WindExposed,                            !- Wind Exposure
  ,                                       !- View Factor to Ground
  ,                                       !- Number of Vertices
  2.1316282072803e-014, -2.48689957516035e-014, 3.048, !- X,Y,Z Vertex 1 {m}
  2.1316282072803e-014, -2.48689957516035e-014, 0, !- X,Y,Z Vertex 2 {m}
  4.57200000000002, -2.48689957516035e-014, 0, !- X,Y,Z Vertex 3 {m}
  4.57200000000002, -2.48689957516035e-014, 3.048; !- X,Y,Z Vertex 4 {m}

OS:Surface,
  {885444c9-e4b4-4622-8abb-fd3ed2728a19}, !- Handle
  Surface 6,                              !- Name
  RoofCeiling,                            !- Surface Type
  ,                                       !- Construction Name
  {6968456c-583d-4e64-87c6-e57021e8fdd4}, !- Space Name
  Adiabatic,                              !- Outside Boundary Condition
  ,                                       !- Outside Boundary Condition Object
  NoSun,                                  !- Sun Exposure
  NoWind,                                 !- Wind Exposure
  ,                                       !- View Factor to Ground
  ,                                       !- Number of Vertices
  4.57200000000002, -2.48689957516035e-014, 3.048, !- X,Y,Z Vertex 1 {m}
  4.57200000000002, 4.572, 3.048,         !- X,Y,Z Vertex 2 {m}
  2.1316282072803e-014, 4.572, 3.048,     !- X,Y,Z Vertex 3 {m}
  2.1316282072803e-014, -2.48689957516035e-014, 3.048; !- X,Y,Z Vertex 4 {m}

OS:ThermalZone,
  {dfd5a08e-4d1d-41f5-9e09-881f793b4322}, !- Handle
  Zone FullServiceRestaurant Kitchen A end_a - Story Ground, !- Name
  1,                                      !- Multiplier
  ,                                       !- Ceiling Height {m}
  ,                                       !- Volume {m3}
  ,                                       !- Floor Area {m2}
  ,                                       !- Zone Inside Convection Algorithm
  ,                                       !- Zone Outside Convection Algorithm
  ,                                       !- Zone Conditioning Equipment List Name
  {49c7e917-9369-43d2-a708-c1b11610ea2b}, !- Zone Air Inlet Port List
  {08f3757f-dae7-49bc-96f2-158b18cd66af}, !- Zone Air Exhaust Port List
  {aed1066a-54ef-4b34-8795-c104bc886eee}, !- Zone Air Node Name
  {9ffcb9ab-bc2e-4f20-862b-c700768eb358}, !- Zone Return Air Port List
  ,                                       !- Primary Daylighting Control Name
  ,                                       !- Fraction of Zone Controlled by Primary Daylighting Control
  ,                                       !- Secondary Daylighting Control Name
  ,                                       !- Fraction of Zone Controlled by Secondary Daylighting Control
  ,                                       !- Illuminance Map Name
  ,                                       !- Group Rendering Name
  ,                                       !- Thermostat Name
  No;                                     !- Use Ideal Air Loads

OS:Node,
  {2fee2b6d-3780-41e2-85b0-affed64c2e84}, !- Handle
  Node 1,                                 !- Name
  {aed1066a-54ef-4b34-8795-c104bc886eee}, !- Inlet Port
  ;                                       !- Outlet Port

OS:Connection,
  {aed1066a-54ef-4b34-8795-c104bc886eee}, !- Handle
  {10f168f4-d360-4b73-8c0b-426d2c11ba03}, !- Name
  {dfd5a08e-4d1d-41f5-9e09-881f793b4322}, !- Source Object
  11,                                     !- Outlet Port
  {2fee2b6d-3780-41e2-85b0-affed64c2e84}, !- Target Object
  2;                                      !- Inlet Port

OS:PortList,
  {49c7e917-9369-43d2-a708-c1b11610ea2b}, !- Handle
  {03cb98b1-b482-4674-91b5-b0fa3815d896}, !- Name
  {dfd5a08e-4d1d-41f5-9e09-881f793b4322}; !- HVAC Component

OS:PortList,
  {08f3757f-dae7-49bc-96f2-158b18cd66af}, !- Handle
  {896f8177-6b82-4f04-8cdb-a48c6be08542}, !- Name
  {dfd5a08e-4d1d-41f5-9e09-881f793b4322}; !- HVAC Component

OS:PortList,
  {9ffcb9ab-bc2e-4f20-862b-c700768eb358}, !- Handle
  {244fffd9-65e9-4288-a71a-a7338ed3d603}, !- Name
  {dfd5a08e-4d1d-41f5-9e09-881f793b4322}; !- HVAC Component

OS:Sizing:Zone,
  {e1e1e8a7-70e9-4c33-8269-0ab4a4f898e1}, !- Handle
  {dfd5a08e-4d1d-41f5-9e09-881f793b4322}, !- Zone or ZoneList Name
  SupplyAirTemperature,                   !- Zone Cooling Design Supply Air Temperature Input Method
  14,                                     !- Zone Cooling Design Supply Air Temperature {C}
  11.11,                                  !- Zone Cooling Design Supply Air Temperature Difference {deltaC}
  SupplyAirTemperature,                   !- Zone Heating Design Supply Air Temperature Input Method
  40,                                     !- Zone Heating Design Supply Air Temperature {C}
  11.11,                                  !- Zone Heating Design Supply Air Temperature Difference {deltaC}
  0.0085,                                 !- Zone Cooling Design Supply Air Humidity Ratio {kg-H2O/kg-air}
  0.008,                                  !- Zone Heating Design Supply Air Humidity Ratio {kg-H2O/kg-air}
  ,                                       !- Zone Heating Sizing Factor
  ,                                       !- Zone Cooling Sizing Factor
  DesignDay,                              !- Cooling Design Air Flow Method
  ,                                       !- Cooling Design Air Flow Rate {m3/s}
  ,                                       !- Cooling Minimum Air Flow per Zone Floor Area {m3/s-m2}
  ,                                       !- Cooling Minimum Air Flow {m3/s}
  ,                                       !- Cooling Minimum Air Flow Fraction
  DesignDay,                              !- Heating Design Air Flow Method
  ,                                       !- Heating Design Air Flow Rate {m3/s}
  ,                                       !- Heating Maximum Air Flow per Zone Floor Area {m3/s-m2}
  ,                                       !- Heating Maximum Air Flow {m3/s}
  ,                                       !- Heating Maximum Air Flow Fraction
  ,                                       !- Design Zone Air Distribution Effectiveness in Cooling Mode
  ,                                       !- Design Zone Air Distribution Effectiveness in Heating Mode
  No,                                     !- Account for Dedicated Outdoor Air System
  NeutralSupplyAir,                       !- Dedicated Outdoor Air System Control Strategy
  autosize,                               !- Dedicated Outdoor Air Low Setpoint Temperature for Design {C}
  autosize;                               !- Dedicated Outdoor Air High Setpoint Temperature for Design {C}

OS:ZoneHVAC:EquipmentList,
  {a21cdfba-bab2-4c51-aa1f-71345fa8ec41}, !- Handle
  Zone HVAC Equipment List 1,             !- Name
  {dfd5a08e-4d1d-41f5-9e09-881f793b4322}; !- Thermal Zone

OS:Space,
  {b08e111f-8efe-464f-8cf8-d1dcc41ce77d}, !- Handle
  FullServiceRestaurant Kitchen B end_a - Story Ground, !- Name
  {3e7d5c7b-dc03-4156-9687-b3f424fdef5b}, !- Space Type Name
  ,                                       !- Default Construction Set Name
  ,                                       !- Default Schedule Set Name
  -0,                                     !- Direction of Relative North {deg}
  -24.9838407775906,                      !- X Origin {m}
  -7.04839105934448,                      !- Y Origin {m}
  0,                                      !- Z Origin {m}
  {7a66d618-85bc-474b-a5e9-a7bcc04350d2}, !- Building Story Name
  {780e8c5e-12c7-41a2-862f-ed6fecc4227b}; !- Thermal Zone Name

OS:Surface,
  {e1acb222-8d26-48cf-8ba7-d034ae54f204}, !- Handle
  Surface 7,                              !- Name
  Floor,                                  !- Surface Type
  ,                                       !- Construction Name
  {b08e111f-8efe-464f-8cf8-d1dcc41ce77d}, !- Space Name
  Ground,                                 !- Outside Boundary Condition
  ,                                       !- Outside Boundary Condition Object
  NoSun,                                  !- Sun Exposure
  NoWind,                                 !- Wind Exposure
  ,                                       !- View Factor to Ground
  ,                                       !- Number of Vertices
  2.1316282072803e-014, -4.44089209850063e-015, 0, !- X,Y,Z Vertex 1 {m}
  2.1316282072803e-014, 14.096782118689, 0, !- X,Y,Z Vertex 2 {m}
  4.57200000000002, 14.096782118689, 0,   !- X,Y,Z Vertex 3 {m}
  4.57200000000002, -4.44089209850063e-015, 0; !- X,Y,Z Vertex 4 {m}

OS:Surface,
  {9b5b25f8-40a3-43b7-986e-d28897ebaabc}, !- Handle
  Surface 8,                              !- Name
  Wall,                                   !- Surface Type
  ,                                       !- Construction Name
  {b08e111f-8efe-464f-8cf8-d1dcc41ce77d}, !- Space Name
  Adiabatic,                              !- Outside Boundary Condition
  ,                                       !- Outside Boundary Condition Object
  NoSun,                                  !- Sun Exposure
  NoWind,                                 !- Wind Exposure
  ,                                       !- View Factor to Ground
  ,                                       !- Number of Vertices
  2.1316282072803e-014, 14.096782118689, 3.048, !- X,Y,Z Vertex 1 {m}
  2.1316282072803e-014, 14.096782118689, 0, !- X,Y,Z Vertex 2 {m}
  2.1316282072803e-014, -4.44089209850063e-015, 0, !- X,Y,Z Vertex 3 {m}
  2.1316282072803e-014, -4.44089209850063e-015, 3.048; !- X,Y,Z Vertex 4 {m}

OS:Surface,
  {3b6d8716-145e-4e62-a866-550cab8dcb54}, !- Handle
  Surface 9,                              !- Name
  Wall,                                   !- Surface Type
  ,                                       !- Construction Name
  {b08e111f-8efe-464f-8cf8-d1dcc41ce77d}, !- Space Name
  Surface,                                !- Outside Boundary Condition
  {45e0c8f4-04aa-413a-b44b-fd469fb0c50a}, !- Outside Boundary Condition Object
  NoSun,                                  !- Sun Exposure
  NoWind,                                 !- Wind Exposure
  ,                                       !- View Factor to Ground
  ,                                       !- Number of Vertices
  4.57200000000002, 14.096782118689, 3.048, !- X,Y,Z Vertex 1 {m}
  4.57200000000002, 14.096782118689, 0,   !- X,Y,Z Vertex 2 {m}
  2.1316282072803e-014, 14.096782118689, 0, !- X,Y,Z Vertex 3 {m}
  2.1316282072803e-014, 14.096782118689, 3.048; !- X,Y,Z Vertex 4 {m}

OS:Surface,
  {e5ed6c4f-f0aa-43be-8189-984de60f109b}, !- Handle
  Surface 10,                             !- Name
  Wall,                                   !- Surface Type
  ,                                       !- Construction Name
  {b08e111f-8efe-464f-8cf8-d1dcc41ce77d}, !- Space Name
  Surface,                                !- Outside Boundary Condition
  {83054264-548a-472d-9d94-2bd213ba0e34}, !- Outside Boundary Condition Object
  NoSun,                                  !- Sun Exposure
  NoWind,                                 !- Wind Exposure
  ,                                       !- View Factor to Ground
  ,                                       !- Number of Vertices
  4.57200000000002, -4.44089209850063e-015, 3.048, !- X,Y,Z Vertex 1 {m}
  4.57200000000002, -4.44089209850063e-015, 0, !- X,Y,Z Vertex 2 {m}
  4.57200000000002, 14.096782118689, 0,   !- X,Y,Z Vertex 3 {m}
  4.57200000000002, 14.096782118689, 3.048; !- X,Y,Z Vertex 4 {m}

OS:Surface,
  {86a0abe8-db62-49e2-8d0b-7309165f2e90}, !- Handle
  Surface 11,                             !- Name
  Wall,                                   !- Surface Type
  ,                                       !- Construction Name
  {b08e111f-8efe-464f-8cf8-d1dcc41ce77d}, !- Space Name
  Surface,                                !- Outside Boundary Condition
  {3b50cec9-54e6-47e2-9936-17315b1f1740}, !- Outside Boundary Condition Object
  NoSun,                                  !- Sun Exposure
  NoWind,                                 !- Wind Exposure
  ,                                       !- View Factor to Ground
  ,                                       !- Number of Vertices
  2.1316282072803e-014, -4.44089209850063e-015, 3.048, !- X,Y,Z Vertex 1 {m}