
OS:Version,
  {6030a2dd-1f71-4b8f-866e-7a272ed2e506}, !- Handle
  2.7.2;                                  !- Version Identifier

OS:SpaceType,
  {fed046e1-6d3c-4d9f-84e3-ba441d0f7924}, !- Handle
  LargeHotel Banquet,                     !- Name
  ,                                       !- Default Construction Set Name
  ,                                       !- Default Schedule Set Name
  {1d7a7495-1084-46d5-a0ce-86b2c3253b23}, !- Group Rendering Name
  ,                                       !- Design Specification Outdoor Air Object Name
  ,                                       !- Standards Template
  LargeHotel,                             !- Standards Building Type
  Banquet;                                !- Standards Space Type

OS:Rendering:Color,
  {1d7a7495-1084-46d5-a0ce-86b2c3253b23}, !- Handle
  LargeHotel Banquet,                     !- Name
  230,                                    !- Rendering Red Value
  196,                                    !- Rendering Green Value
  120;                                    !- Rendering Blue Value

OS:SpaceType,
  {66dadf6a-0be9-49f3-9bec-e8143829f439}, !- Handle
  LargeHotel Cafe,                        !- Name
  ,                                       !- Default Construction Set Name
  ,                                       !- Default Schedule Set Name
  {7b56b773-bb4b-466b-bc8f-02aabcb5e134}, !- Group Rendering Name
  ,                                       !- Design Specification Outdoor Air Object Name
  ,                                       !- Standards Template
  LargeHotel,                             !- Standards Building Type
  Cafe;                                   !- Standards Space Type

OS:Rendering:Color,
  {7b56b773-bb4b-466b-bc8f-02aabcb5e134}, !- Handle
  LargeHotel Cafe,                        !- Name
  31,                                     !- Rendering Red Value
  169,                                    !- Rendering Green Value
  34;                                     !- Rendering Blue Value

OS:SpaceType,
  {4131b7b5-d052-4ec9-a6a7-6479b2baeb92}, !- Handle
  LargeHotel Corridor,                    !- Name
  ,                                       !- Default Construction Set Name
  ,                                       !- Default Schedule Set Name
  {338fd447-3267-42bf-8bc8-ad97ed396d29}, !- Group Rendering Name
  ,                                       !- Design Specification Outdoor Air Object Name
  ,                                       !- Standards Template
  LargeHotel,                             !- Standards Building Type
  Corridor;                               !- Standards Space Type

OS:Rendering:Color,
  {338fd447-3267-42bf-8bc8-ad97ed396d29}, !- Handle
  LargeHotel Corridor,                    !- Name
  169,                                    !- Rendering Red Value
  31,                                     !- Rendering Green Value
  31;                                     !- Rendering Blue Value

OS:SpaceType,
  {54ab9805-b527-43bb-bf1b-49ed2e9f2bcb}, !- Handle
  LargeHotel GuestRoom,                   !- Name
  ,                                       !- Default Construction Set Name
  ,                                       !- Default Schedule Set Name
  {f2d47abe-ee7e-46e7-a9fa-521559404a97}, !- Group Rendering Name
  ,                                       !- Design Specification Outdoor Air Object Name
  ,                                       !- Standards Template
  LargeHotel,                             !- Standards Building Type
  GuestRoom;                              !- Standards Space Type

OS:Rendering:Color,
  {f2d47abe-ee7e-46e7-a9fa-521559404a97}, !- Handle
  LargeHotel GuestRoom,                   !- Name
  78,                                     !- Rendering Red Value
  167,                                    !- Rendering Green Value
  222;                                    !- Rendering Blue Value

OS:SpaceType,
  {05c2b2b1-965e-4ac3-ad71-b7e7849f6787}, !- Handle
  LargeHotel Kitchen,                     !- Name
  ,                                       !- Default Construction Set Name
  ,                                       !- Default Schedule Set Name
  {ac050dd8-fcd3-46dd-bf2d-b429a7df5049}, !- Group Rendering Name
  ,                                       !- Design Specification Outdoor Air Object Name
  ,                                       !- Standards Template
  LargeHotel,                             !- Standards Building Type
  Kitchen;                                !- Standards Space Type

OS:Rendering:Color,
  {ac050dd8-fcd3-46dd-bf2d-b429a7df5049}, !- Handle
  LargeHotel Kitchen,                     !- Name
  78,                                     !- Rendering Red Value
  222,                                    !- Rendering Green Value
  133;                                    !- Rendering Blue Value

OS:SpaceType,
  {69e5b1d9-bc63-492e-8af1-73b97169f5d6}, !- Handle
  LargeHotel Laundry,                     !- Name
  ,                                       !- Default Construction Set Name
  ,                                       !- Default Schedule Set Name
  {84cdf307-88b6-4162-a3f5-47a6b9bea954}, !- Group Rendering Name
  ,                                       !- Design Specification Outdoor Air Object Name
  ,                                       !- Standards Template
  LargeHotel,                             !- Standards Building Type
  Laundry;                                !- Standards Space Type

OS:Rendering:Color,
  {84cdf307-88b6-4162-a3f5-47a6b9bea954}, !- Handle
  LargeHotel Laundry,                     !- Name
  120,                                    !- Rendering Red Value
  149,                                    !- Rendering Green Value
  230;                                    !- Rendering Blue Value

OS:SpaceType,
  {b815cba2-cd96-45a1-9857-f9a3863f751d}, !- Handle
  LargeHotel Lobby,                       !- Name
  ,                                       !- Default Construction Set Name
  ,                                       !- Default Schedule Set Name
  {41fce612-bf5c-40aa-9595-0eb2c93540f1}, !- Group Rendering Name
  ,                                       !- Design Specification Outdoor Air Object Name
  ,                                       !- Standards Template
  LargeHotel,                             !- Standards Building Type
  Lobby;                                  !- Standards Space Type

OS:Rendering:Color,
  {41fce612-bf5c-40aa-9595-0eb2c93540f1}, !- Handle
  LargeHotel Lobby,                       !- Name
  230,                                    !- Rendering Red Value
  157,                                    !- Rendering Green Value
  120;                                    !- Rendering Blue Value

OS:SpaceType,
  {37f0a7e7-6885-4d89-9ab6-f9a227f75444}, !- Handle
  LargeHotel Mechanical,                  !- Name
  ,                                       !- Default Construction Set Name
  ,                                       !- Default Schedule Set Name
  {39d132a0-68b0-42d5-86d6-7d60f165f176}, !- Group Rendering Name
  ,                                       !- Design Specification Outdoor Air Object Name
  ,                                       !- Standards Template
  LargeHotel,                             !- Standards Building Type
  Mechanical;                             !- Standards Space Type

OS:Rendering:Color,
  {39d132a0-68b0-42d5-86d6-7d60f165f176}, !- Handle
  LargeHotel Mechanical,                  !- Name
  41,                                     !- Rendering Red Value
  31,                                     !- Rendering Green Value
  169;                                    !- Rendering Blue Value

OS:SpaceType,
  {c4b7aeb7-08fb-4880-b931-8800fb844ad3}, !- Handle
  LargeHotel Retail,                      !- Name
  ,                                       !- Default Construction Set Name
  ,                                       !- Default Schedule Set Name
  {56ce2d25-30bf-413d-abf2-661fb243f8d0}, !- Group Rendering Name
  ,                                       !- Design Specification Outdoor Air Object Name
  ,                                       !- Standards Template
  LargeHotel,                             !- Standards Building Type
  Retail;                                 !- Standards Space Type

OS:Rendering:Color,
  {56ce2d25-30bf-413d-abf2-661fb243f8d0}, !- Handle
  LargeHotel Retail,                      !- Name
  171,                                    !- Rendering Red Value
  222,                                    !- Rendering Green Value
  78;                                     !- Rendering Blue Value

OS:SpaceType,
  {14847ec7-b150-43d3-a9a2-a7e48ee3dcb0}, !- Handle
  LargeHotel Storage,                     !- Name
  ,                                       !- Default Construction Set Name
  ,                                       !- Default Schedule Set Name
  {62615824-db91-4478-82a5-76e395e6fea5}, !- Group Rendering Name
  ,                                       !- Design Specification Outdoor Air Object Name
  ,                                       !- Standards Template
  LargeHotel,                             !- Standards Building Type
  Storage;                                !- Standards Space Type

OS:Rendering:Color,
  {62615824-db91-4478-82a5-76e395e6fea5}, !- Handle
  LargeHotel Storage,                     !- Name
  120,                                    !- Rendering Red Value
  149,                                    !- Rendering Green Value
  230;                                    !- Rendering Blue Value

OS:SpaceType,
  {7fde93f1-8720-4a74-968a-0dbee32fbc41}, !- Handle
  FullServiceRestaurant Dining,           !- Name
  ,                                       !- Default Construction Set Name
  ,                                       !- Default Schedule Set Name
  {d40e1ea2-4d54-45f4-9612-8afabaee56ad}, !- Group Rendering Name
  ,                                       !- Design Specification Outdoor Air Object Name
  ,                                       !- Standards Template
  FullServiceRestaurant,                  !- Standards Building Type
  Dining;                                 !- Standards Space Type

OS:Rendering:Color,
  {d40e1ea2-4d54-45f4-9612-8afabaee56ad}, !- Handle
  FullServiceRestaurant Dining,           !- Name
  31,                                     !- Rendering Red Value
  169,                                    !- Rendering Green Value
  34;                                     !- Rendering Blue Value

OS:SpaceType,
  {43233f75-fc76-42b6-b9d3-e5436fc0a2c3}, !- Handle
  FullServiceRestaurant Kitchen,          !- Name
  ,                                       !- Default Construction Set Name
  ,                                       !- Default Schedule Set Name
  {0031c53d-51f1-4dc7-b23d-d4e2127448b2}, !- Group Rendering Name
  ,                                       !- Design Specification Outdoor Air Object Name
  ,                                       !- Standards Template
  FullServiceRestaurant,                  !- Standards Building Type
  Kitchen;                                !- Standards Space Type

OS:Rendering:Color,
  {0031c53d-51f1-4dc7-b23d-d4e2127448b2}, !- Handle
  FullServiceRestaurant Kitchen,          !- Name
  78,                                     !- Rendering Red Value
  222,                                    !- Rendering Green Value
  133;                                    !- Rendering Blue Value

OS:Building,
  {c1e8af2d-4bf3-4007-bc9c-0a68020c3947}, !- Handle
  90.1-2004|LargeHotel|FullServiceRestaurant, !- Name
  ,                                       !- Building Sector Type
  ,                                       !- North Axis {deg}
  ,                                       !- Nominal Floor to Floor Height {m}
  ,                                       !- Space Type Name
  ,                                       !- Default Construction Set Name
  ;                                       !- Default Schedule Set Name

OS:Site,
  {6f4cff51-d698-434c-868c-03eedd8e1d03}, !- Handle
  Site 1,                                 !- Name
  ,                                       !- Latitude {deg}
  ,                                       !- Longitude {deg}
  ,                                       !- Time Zone {hr}
  ,                                       !- Elevation {m}
  ;                                       !- Terrain

OS:BuildingStory,
  {e371bc91-e444-4902-8564-f81d7a3b3438}, !- Handle
  Story Ground,                           !- Name
  0,                                      !- Nominal Z Coordinate {m}
  3.048,                                  !- Nominal Floor to Floor Height {m}
  ,                                       !- Default Construction Set Name
  ,                                       !- Default Schedule Set Name
  ;                                       !- Group Rendering Name

OS:Space,
  {79c186ff-e235-426e-bdfa-7b3dbe4d2045}, !- Handle
  LargeHotel Lobby A end_a - Story Ground, !- Name
  {b815cba2-cd96-45a1-9857-f9a3863f751d}, !- Space Type Name
  ,                                       !- Default Construction Set Name
  ,                                       !- Default Schedule Set Name
  -0,                                     !- Direction of Relative North {deg}
  -62.8361297344131,                      !- X Origin {m}
  -12.3208097518457,                      !- Y Origin {m}
  0,                                      !- Z Origin {m}
  {e371bc91-e444-4902-8564-f81d7a3b3438}, !- Building Story Name
  {3b632e86-ad40-4768-b741-1ec4e8be4839}; !- Thermal Zone Name

OS:Surface,
  {d7b8de06-0399-40cf-a2a7-0d9a31cf0d8f}, !- Handle
  Surface 1,                              !- Name
  Floor,                                  !- Surface Type
  ,                                       !- Construction Name
  {79c186ff-e235-426e-bdfa-7b3dbe4d2045}, !- Space Name
  Ground,                                 !- Outside Boundary Condition
  ,                                       !- Outside Boundary Condition Object
  NoSun,                                  !- Sun Exposure
  NoWind,                                 !- Wind Exposure
  ,                                       !- View Factor to Ground
  ,                                       !- Number of Vertices
  4.9737991503207e-014, 1.59872115546023e-014, 0, !- X,Y,Z Vertex 1 {m}
  4.9737991503207e-014, 4.57199999999999, 0, !- X,Y,Z Vertex 2 {m}
  4.57200000000005, 4.57199999999999, 0,  !- X,Y,Z Vertex 3 {m}
  4.57200000000005, 1.59872115546023e-014, 0; !- X,Y,Z Vertex 4 {m}

OS:Surface,
  {e47d6e88-a4cf-4f98-a245-dedd155bb755}, !- Handle
  Surface 2,                              !- Name
  Wall,                                   !- Surface Type
  ,                                       !- Construction Name
  {79c186ff-e235-426e-bdfa-7b3dbe4d2045}, !- Space Name
  Outdoors,                               !- Outside Boundary Condition
  ,                                       !- Outside Boundary Condition Object
  SunExposed,                             !- Sun Exposure
  WindExposed,                            !- Wind Exposure
  ,                                       !- View Factor to Ground
  ,                                       !- Number of Vertices
  4.9737991503207e-014, 4.57199999999999, 3.048, !- X,Y,Z Vertex 1 {m}
  4.9737991503207e-014, 4.57199999999999, 0, !- X,Y,Z Vertex 2 {m}
  4.9737991503207e-014, 1.59872115546023e-014, 0, !- X,Y,Z Vertex 3 {m}
  4.9737991503207e-014, 1.59872115546023e-014, 3.048; !- X,Y,Z Vertex 4 {m}

OS:Surface,
  {6389222a-2c5b-448f-a90c-111ff3f017c7}, !- Handle
  Surface 3,                              !- Name
  Wall,                                   !- Surface Type
  ,                                       !- Construction Name
  {79c186ff-e235-426e-bdfa-7b3dbe4d2045}, !- Space Name
  Surface,                                !- Outside Boundary Condition
  {bca15b51-9f17-47e0-9039-ee7583b2c1d2}, !- Outside Boundary Condition Object
  NoSun,                                  !- Sun Exposure
  NoWind,                                 !- Wind Exposure
  ,                                       !- View Factor to Ground
  ,                                       !- Number of Vertices
  4.57200000000005, 4.57199999999999, 3.048, !- X,Y,Z Vertex 1 {m}
  4.57200000000005, 4.57199999999999, 0,  !- X,Y,Z Vertex 2 {m}
  4.9737991503207e-014, 4.57199999999999, 0, !- X,Y,Z Vertex 3 {m}
  4.9737991503207e-014, 4.57199999999999, 3.048; !- X,Y,Z Vertex 4 {m}

OS:Surface,
  {bbfb585d-9742-42f3-852b-1d35c09f2d6d}, !- Handle
  Surface 4,                              !- Name
  Wall,                                   !- Surface Type
  ,                                       !- Construction Name
  {79c186ff-e235-426e-bdfa-7b3dbe4d2045}, !- Space Name
  Surface,                                !- Outside Boundary Condition
  {a5935a4a-e82b-4c94-b9ef-24b81a9ccb58}, !- Outside Boundary Condition Object
  NoSun,                                  !- Sun Exposure
  NoWind,                                 !- Wind Exposure
  ,                                       !- View Factor to Ground
  ,                                       !- Number of Vertices
  4.57200000000005, 1.59872115546023e-014, 3.048, !- X,Y,Z Vertex 1 {m}
  4.57200000000005, 1.59872115546023e-014, 0, !- X,Y,Z Vertex 2 {m}
  4.57200000000005, 4.57199999999999, 0,  !- X,Y,Z Vertex 3 {m}
  4.57200000000005, 4.57199999999999, 3.048; !- X,Y,Z Vertex 4 {m}

OS:Surface,
  {11de8bd0-dd39-4240-801e-7a0d4e59f8ad}, !- Handle
  Surface 5,                              !- Name
  Wall,                                   !- Surface Type
  ,                                       !- Construction Name
  {79c186ff-e235-426e-bdfa-7b3dbe4d2045}, !- Space Name
  Outdoors,                               !- Outside Boundary Condition
  ,                                       !- Outside Boundary Condition Object
  SunExposed,                             !- Sun Exposure
  WindExposed,                            !- Wind Exposure
  ,                                       !- View Factor to Ground
  ,                                       !- Number of Vertices
  4.9737991503207e-014, 1.59872115546023e-014, 3.048, !- X,Y,Z Vertex 1 {m}
  4.9737991503207e-014, 1.59872115546023e-014, 0, !- X,Y,Z Vertex 2 {m}
  4.57200000000005, 1.59872115546023e-014, 0, !- X,Y,Z Vertex 3 {m}
  4.57200000000005, 1.59872115546023e-014, 3.048; !- X,Y,Z Vertex 4 {m}

OS:Surface,
  {29924bbd-075f-4a7a-b05d-dd98031c919e}, !- Handle
  Surface 6,                              !- Name
  RoofCeiling,                            !- Surface Type
  ,                                       !- Construction Name
  {79c186ff-e235-426e-bdfa-7b3dbe4d2045}, !- Space Name
  Surface,                                !- Outside Boundary Condition
  {4acb2ae1-83f2-4e8e-b433-16596d671991}, !- Outside Boundary Condition Object
  NoSun,                                  !- Sun Exposure
  NoWind,                                 !- Wind Exposure
  ,                                       !- View Factor to Ground
  ,                                       !- Number of Vertices
  4.57200000000005, 1.59872115546023e-014, 3.048, !- X,Y,Z Vertex 1 {m}
  4.57200000000005, 4.57199999999999, 3.048, !- X,Y,Z Vertex 2 {m}
  4.9737991503207e-014, 4.57199999999999, 3.048, !- X,Y,Z Vertex 3 {m}
  4.9737991503207e-014, 1.59872115546023e-014, 3.048; !- X,Y,Z Vertex 4 {m}

OS:ThermalZone,
  {3b632e86-ad40-4768-b741-1ec4e8be4839}, !- Handle
  Zone LargeHotel Lobby A end_a - Story Ground, !- Name
  1,                                      !- Multiplier
  ,                                       !- Ceiling Height {m}
  ,                                       !- Volume {m3}
  ,                                       !- Floor Area {m2}
  ,                                       !- Zone Inside Convection Algorithm
  ,                                       !- Zone Outside Convection Algorithm
  ,                                       !- Zone Conditioning Equipment List Name
  {587fd9aa-7563-42eb-a44c-591875dd4f32}, !- Zone Air Inlet Port List
  {b2913668-a535-4838-88cf-2fdac985f8a3}, !- Zone Air Exhaust Port List
  {e255cbcf-1cd2-478c-a829-76a4983aed6d}, !- Zone Air Node Name
  {8e757f29-727c-4ab3-9d88-923e732587d6}, !- Zone Return Air Port List
  ,                                       !- Primary Daylighting Control Name
  ,                                       !- Fraction of Zone Controlled by Primary Daylighting Control
  ,                                       !- Secondary Daylighting Control Name
  ,                                       !- Fraction of Zone Controlled by Secondary Daylighting Control
  ,                                       !- Illuminance Map Name
  ,                                       !- Group Rendering Name
  ,                                       !- Thermostat Name
  No;                                     !- Use Ideal Air Loads

OS:Node,
  {050e2c74-f39c-4d53-95e9-1eb572baa720}, !- Handle
  Node 1,                                 !- Name
  {e255cbcf-1cd2-478c-a829-76a4983aed6d}, !- Inlet Port
  ;                                       !- Outlet Port

OS:Connection,
  {e255cbcf-1cd2-478c-a829-76a4983aed6d}, !- Handle
  {2d65b0b8-2a8c-4b8d-a8fc-5e26a48ce120}, !- Name
  {3b632e86-ad40-4768-b741-1ec4e8be4839}, !- Source Object
  11,                                     !- Outlet Port
  {050e2c74-f39c-4d53-95e9-1eb572baa720}, !- Target Object
  2;                                      !- Inlet Port

OS:PortList,
  {587fd9aa-7563-42eb-a44c-591875dd4f32}, !- Handle
  {44ddfc29-83cd-4615-83c5-7925b9dbcad0}, !- Name
  {3b632e86-ad40-4768-b741-1ec4e8be4839}; !- HVAC Component

OS:PortList,
  {b2913668-a535-4838-88cf-2fdac985f8a3}, !- Handle
  {1edefac6-0040-43ab-899f-4d5529c28b83}, !- Name
  {3b632e86-ad40-4768-b741-1ec4e8be4839}; !- HVAC Component

OS:PortList,
  {8e757f29-727c-4ab3-9d88-923e732587d6}, !- Handle
  {b8dda19d-ca14-450a-bbd2-e30ac25f2ca6}, !- Name
  {3b632e86-ad40-4768-b741-1ec4e8be4839}; !- HVAC Component

OS:Sizing:Zone,
  {78c3d71d-891e-404e-9343-47943c5e3177}, !- Handle
  {3b632e86-ad40-4768-b741-1ec4e8be4839}, !- Zone or ZoneList Name
  SupplyAirTemperature,                   !- Zone Cooling Design Supply Air Temperature Input Method
  14,                                     !- Zone Cooling Design Supply Air Temperature {C}
  11.11,                                  !- Zone Cooling Design Supply Air Temperature Difference {deltaC}
  SupplyAirTemperature,                   !- Zone Heating Design Supply Air Temperature Input Method
  40,                                     !- Zone Heating Design Supply Air Temperature {C}
  11.11,                                  !- Zone Heating Design Supply Air Temperature Difference {deltaC}
  0.0085,                                 !- Zone Cooling Design Supply Air Humidity Ratio {kg-H2O/kg-air}
  0.008,                                  !- Zone Heating Design Supply Air Humidity Ratio {kg-H2O/kg-air}
  ,                                       !- Zone Heating Sizing Factor
  ,                                       !- Zone Cooling Sizing Factor
  DesignDay,                              !- Cooling Design Air Flow Method
  ,                                       !- Cooling Design Air Flow Rate {m3/s}
  ,                                       !- Cooling Minimum Air Flow per Zone Floor Area {m3/s-m2}
  ,                                       !- Cooling Minimum Air Flow {m3/s}
  ,                                       !- Cooling Minimum Air Flow Fraction
  DesignDay,                              !- Heating Design Air Flow Method
  ,                                       !- Heating Design Air Flow Rate {m3/s}
  ,                                       !- Heating Maximum Air Flow per Zone Floor Area {m3/s-m2}
  ,                                       !- Heating Maximum Air Flow {m3/s}
  ,                                       !- Heating Maximum Air Flow Fraction
  ,                                       !- Design Zone Air Distribution Effectiveness in Cooling Mode
  ,                                       !- Design Zone Air Distribution Effectiveness in Heating Mode
  No,                                     !- Account for Dedicated Outdoor Air System
  NeutralSupplyAir,                       !- Dedicated Outdoor Air System Control Strategy
  autosize,                               !- Dedicated Outdoor Air Low Setpoint Temperature for Design {C}
  autosize;                               !- Dedicated Outdoor Air High Setpoint Temperature for Design {C}

OS:ZoneHVAC:EquipmentList,
  {c7dc24d1-d43a-4adc-8031-14da7d72535f}, !- Handle
  Zone HVAC Equipment List 1,             !- Name
  {3b632e86-ad40-4768-b741-1ec4e8be4839}; !- Thermal Zone

OS:Space,
  {8e2216c9-491e-404d-8a40-0fe76991084b}, !- Handle
  LargeHotel Lobby B end_a - Story Ground, !- Name
  {b815cba2-cd96-45a1-9857-f9a3863f751d}, !- Space Type Name
  ,                                       !- Default Construction Set Name
  ,                                       !- Default Schedule Set Name
  -0,                                     !- Direction of Relative North {deg}
  -62.8361297344131,                      !- X Origin {m}
  -7.74880975184572,                      !- Y Origin {m}
  0,                                      !- Z Origin {m}
  {e371bc91-e444-4902-8564-f81d7a3b3438}, !- Building Story Name
  {5bb7b74e-3bb7-461f-8b2e-3a2c7c940bcc}; !- Thermal Zone Name

OS:Surface,
  {4fd7d6c0-42c7-4ba9-8b61-74cc329c8784}, !- Handle
  Surface 7,                              !- Name
  Floor,                                  !- Surface Type
  ,                                       !- Construction Name
  {8e2216c9-491e-404d-8a40-0fe76991084b}, !- Space Name
  Ground,                                 !- Outside Boundary Condition
  ,                                       !- Outside Boundary Condition Object
  NoSun,                                  !- Sun Exposure
  NoWind,                                 !- Wind Exposure
  ,                                       !- View Factor to Ground
  ,                                       !- Number of Vertices
  4.9737991503207e-014, -5.32907051820075e-015, 0, !- X,Y,Z Vertex 1 {m}
  4.9737991503207e-014, 15.4976195036914, 0, !- X,Y,Z Vertex 2 {m}
  4.57200000000005, 15.4976195036914, 0,  !- X,Y,Z Vertex 3 {m}
  4.57200000000005, -5.32907051820075e-015, 0; !- X,Y,Z Vertex 4 {m}

OS:Surface,
  {11418c4c-f896-4811-8952-c02dfba5d261}, !- Handle
  Surface 8,                              !- Name
  Wall,                                   !- Surface Type
  ,                                       !- Construction Name
  {8e2216c9-491e-404d-8a40-0fe76991084b}, !- Space Name
  Outdoors,                               !- Outside Boundary Condition
  ,                                       !- Outside Boundary Condition Object
  SunExposed,                             !- Sun Exposure
  WindExposed,                            !- Wind Exposure
  ,                                       !- View Factor to Ground
  ,                                       !- Number of Vertices
  4.9737991503207e-014, 15.4976195036914, 3.048, !- X,Y,Z Vertex 1 {m}
  4.9737991503207e-014, 15.4976195036914, 0, !- X,Y,Z Vertex 2 {m}
  4.9737991503207e-014, -5.32907051820075e-015, 0, !- X,Y,Z Vertex 3 {m}
  4.9737991503207e-014, -5.32907051820075e-015, 3.048; !- X,Y,Z Vertex 4 {m}

OS:Surface,
  {e86237cc-4140-4f0a-8926-0ba8d4c97434}, !- Handle
  Surface 9,                              !- Name
  Wall,                                   !- Surface Type
  ,                                       !- Construction Name
  {8e2216c9-491e-404d-8a40-0fe76991084b}, !- Space Name
  Surface,                                !- Outside Boundary Condition
  {c6dc0884-3d8a-44dc-a348-a610390d810e}, !- Outside Boundary Condition Object
  NoSun,                                  !- Sun Exposure
  NoWind,                                 !- Wind Exposure
  ,                                       !- View Factor to Ground
  ,                                       !- Number of Vertices
  4.57200000000005, 15.4976195036914, 3.048, !- X,Y,Z Vertex 1 {m}
  4.57200000000005, 15.4976195036914, 0,  !- X,Y,Z Vertex 2 {m}
  4.9737991503207e-014, 15.4976195036914, 0, !- X,Y,Z Vertex 3 {m}
  4.9737991503207e-014, 15.4976195036914, 3.048; !- X,Y,Z Vertex 4 {m}

OS:Surface,
  {2ef6483f-c32c-4360-acc5-c291fcdb5ace}, !- Handle
  Surface 10,                             !- Name
  Wall,                                   !- Surface Type
  ,                                       !- Construction Name
  {8e2216c9-491e-404d-8a40-0fe76991084b}, !- Space Name
  Surface,                                !- Outside Boundary Condition
  {e2dde512-1344-49b8-bd5f-d05c1182fd4c}, !- Outside Boundary Condition Object
  NoSun,                                  !- Sun Exposure
  NoWind,                                 !- Wind Exposure
  ,                                       !- View Factor to Ground
  ,                                       !- Number of Vertices
  4.57200000000005, -5.32907051820075e-015, 3.048, !- X,Y,Z Vertex 1 {m}
  4.57200000000005, -5.32907051820075e-015, 0, !- X,Y,Z Vertex 2 {m}
  4.57200000000005, 15.4976195036914, 0,  !- X,Y,Z Vertex 3 {m}
  4.57200000000005, 15.4976195036914, 3.048; !- X,Y,Z Vertex 4 {m}

OS:Surface,
  {bca15b51-9f17-47e0-9039-ee7583b2c1d2}, !- Handle
  Surface 11,                             !- Name
  Wall,                                   !- Surface Type
  ,                                       !- Construction Name
  {8e2216c9-491e-404d-8a40-0fe76991084b}, !- Space Name
  Surface,                                !- Outside Boundary Condition
  {6389222a-2c5b-448f-a90c-111ff3f017c7}, !- Outside Boundary Condition Object
  NoSun,                                  !- Sun Exposure
  NoWind,                                 !- Wind Exposure
  ,                                       !- View Factor to Ground
  ,                                       !- Number of Vertices
  4.9737991503207e-014, -5.32907051820075e-015, 3.048, !- X,Y,Z Vertex 1 {m}