
OS:Version,
  {624d620d-3a22-45d4-a45a-8f97ee552ff0}, !- Handle
  2.7.2;                                  !- Version Identifier

OS:SpaceType,
  {16ac20eb-26b1-41aa-bf91-e0eb4e134dbc}, !- Handle
  LargeHotel Banquet,                     !- Name
  ,                                       !- Default Construction Set Name
  ,                                       !- Default Schedule Set Name
  {d56f2119-0b21-4e8c-9cb4-982c4b80864a}, !- Group Rendering Name
  ,                                       !- Design Specification Outdoor Air Object Name
  ,                                       !- Standards Template
  LargeHotel,                             !- Standards Building Type
  Banquet;                                !- Standards Space Type

OS:Rendering:Color,
  {d56f2119-0b21-4e8c-9cb4-982c4b80864a}, !- Handle
  LargeHotel Banquet,                     !- Name
  230,                                    !- Rendering Red Value
  196,                                    !- Rendering Green Value
  120;                                    !- Rendering Blue Value

OS:SpaceType,
  {345a9424-5803-44f0-9591-4c14350603e2}, !- Handle
  LargeHotel Cafe,                        !- Name
  ,                                       !- Default Construction Set Name
  ,                                       !- Default Schedule Set Name
  {ebb29d3b-3577-4e3e-9379-2729d36a7563}, !- Group Rendering Name
  ,                                       !- Design Specification Outdoor Air Object Name
  ,                                       !- Standards Template
  LargeHotel,                             !- Standards Building Type
  Cafe;                                   !- Standards Space Type

OS:Rendering:Color,
  {ebb29d3b-3577-4e3e-9379-2729d36a7563}, !- Handle
  LargeHotel Cafe,                        !- Name
  31,                                     !- Rendering Red Value
  169,                                    !- Rendering Green Value
  34;                                     !- Rendering Blue Value

OS:SpaceType,
  {d20b9f40-b473-477b-bd6b-23fb48b106b6}, !- Handle
  LargeHotel Corridor,                    !- Name
  ,                                       !- Default Construction Set Name
  ,                                       !- Default Schedule Set Name
  {689c8121-379a-4117-9aba-adb1d4e0b6d4}, !- Group Rendering Name
  ,                                       !- Design Specification Outdoor Air Object Name
  ,                                       !- Standards Template
  LargeHotel,                             !- Standards Building Type
  Corridor;                               !- Standards Space Type

OS:Rendering:Color,
  {689c8121-379a-4117-9aba-adb1d4e0b6d4}, !- Handle
  LargeHotel Corridor,                    !- Name
  169,                                    !- Rendering Red Value
  31,                                     !- Rendering Green Value
  31;                                     !- Rendering Blue Value

OS:SpaceType,
  {ea930c97-5cad-46e6-862a-b74e37267156}, !- Handle
  LargeHotel GuestRoom,                   !- Name
  ,                                       !- Default Construction Set Name
  ,                                       !- Default Schedule Set Name
  {03d0ef73-e249-43b2-acd9-8ce2158f58cf}, !- Group Rendering Name
  ,                                       !- Design Specification Outdoor Air Object Name
  ,                                       !- Standards Template
  LargeHotel,                             !- Standards Building Type
  GuestRoom;                              !- Standards Space Type

OS:Rendering:Color,
  {03d0ef73-e249-43b2-acd9-8ce2158f58cf}, !- Handle
  LargeHotel GuestRoom,                   !- Name
  78,                                     !- Rendering Red Value
  167,                                    !- Rendering Green Value
  222;                                    !- Rendering Blue Value

OS:SpaceType,
  {1779c11d-88a1-4edd-821f-8c218d96004f}, !- Handle
  LargeHotel Kitchen,                     !- Name
  ,                                       !- Default Construction Set Name
  ,                                       !- Default Schedule Set Name
  {7fc1e67d-5ea2-4ab8-9487-751292a3a954}, !- Group Rendering Name
  ,                                       !- Design Specification Outdoor Air Object Name
  ,                                       !- Standards Template
  LargeHotel,                             !- Standards Building Type
  Kitchen;                                !- Standards Space Type

OS:Rendering:Color,
  {7fc1e67d-5ea2-4ab8-9487-751292a3a954}, !- Handle
  LargeHotel Kitchen,                     !- Name
  78,                                     !- Rendering Red Value
  222,                                    !- Rendering Green Value
  133;                                    !- Rendering Blue Value

OS:SpaceType,
  {f533dad5-e90f-4a63-8ec6-475413893a93}, !- Handle
  LargeHotel Laundry,                     !- Name
  ,                                       !- Default Construction Set Name
  ,                                       !- Default Schedule Set Name
  {624e6bbe-263a-42a8-8858-8814bfd5e7cd}, !- Group Rendering Name
  ,                                       !- Design Specification Outdoor Air Object Name
  ,                                       !- Standards Template
  LargeHotel,                             !- Standards Building Type
  Laundry;                                !- Standards Space Type

OS:Rendering:Color,
  {624e6bbe-263a-42a8-8858-8814bfd5e7cd}, !- Handle
  LargeHotel Laundry,                     !- Name
  120,                                    !- Rendering Red Value
  149,                                    !- Rendering Green Value
  230;                                    !- Rendering Blue Value

OS:SpaceType,
  {131c7c91-bfeb-4642-b7c0-8b45774bcb8a}, !- Handle
  LargeHotel Lobby,                       !- Name
  ,                                       !- Default Construction Set Name
  ,                                       !- Default Schedule Set Name
  {e79ea687-7358-46fe-9d09-c41ef9adc27b}, !- Group Rendering Name
  ,                                       !- Design Specification Outdoor Air Object Name
  ,                                       !- Standards Template
  LargeHotel,                             !- Standards Building Type
  Lobby;                                  !- Standards Space Type

OS:Rendering:Color,
  {e79ea687-7358-46fe-9d09-c41ef9adc27b}, !- Handle
  LargeHotel Lobby,                       !- Name
  230,                                    !- Rendering Red Value
  157,                                    !- Rendering Green Value
  120;                                    !- Rendering Blue Value

OS:SpaceType,
  {fde35109-58c7-4e7d-a316-c27724cc51a1}, !- Handle
  LargeHotel Mechanical,                  !- Name
  ,                                       !- Default Construction Set Name
  ,                                       !- Default Schedule Set Name
  {5e272c36-89c8-415d-a16a-4852b9ec9227}, !- Group Rendering Name
  ,                                       !- Design Specification Outdoor Air Object Name
  ,                                       !- Standards Template
  LargeHotel,                             !- Standards Building Type
  Mechanical;                             !- Standards Space Type

OS:Rendering:Color,
  {5e272c36-89c8-415d-a16a-4852b9ec9227}, !- Handle
  LargeHotel Mechanical,                  !- Name
  41,                                     !- Rendering Red Value
  31,                                     !- Rendering Green Value
  169;                                    !- Rendering Blue Value

OS:SpaceType,
  {7c839703-345d-47fb-abe6-75bfda2e8e40}, !- Handle
  LargeHotel Retail,                      !- Name
  ,                                       !- Default Construction Set Name
  ,                                       !- Default Schedule Set Name
  {d31441bc-82f3-4b42-9b42-2eeae5a49b34}, !- Group Rendering Name
  ,                                       !- Design Specification Outdoor Air Object Name
  ,                                       !- Standards Template
  LargeHotel,                             !- Standards Building Type
  Retail;                                 !- Standards Space Type

OS:Rendering:Color,
  {d31441bc-82f3-4b42-9b42-2eeae5a49b34}, !- Handle
  LargeHotel Retail,                      !- Name
  171,                                    !- Rendering Red Value
  222,                                    !- Rendering Green Value
  78;                                     !- Rendering Blue Value

OS:SpaceType,
  {9b04ea9e-96cc-4116-b552-5e433783efcd}, !- Handle
  LargeHotel Storage,                     !- Name
  ,                                       !- Default Construction Set Name
  ,                                       !- Default Schedule Set Name
  {be4b393c-3bae-4cd3-aa44-591c4194ec00}, !- Group Rendering Name
  ,                                       !- Design Specification Outdoor Air Object Name
  ,                                       !- Standards Template
  LargeHotel,                             !- Standards Building Type
  Storage;                                !- Standards Space Type

OS:Rendering:Color,
  {be4b393c-3bae-4cd3-aa44-591c4194ec00}, !- Handle
  LargeHotel Storage,                     !- Name
  120,                                    !- Rendering Red Value
  149,                                    !- Rendering Green Value
  230;                                    !- Rendering Blue Value

OS:SpaceType,
  {fbcffab4-8211-4b7a-af72-ce7011f2bde9}, !- Handle
  FullServiceRestaurant Dining,           !- Name
  ,                                       !- Default Construction Set Name
  ,                                       !- Default Schedule Set Name
  {bab619a5-4693-49f4-968c-ce1acbe65d23}, !- Group Rendering Name
  ,                                       !- Design Specification Outdoor Air Object Name
  ,                                       !- Standards Template
  FullServiceRestaurant,                  !- Standards Building Type
  Dining;                                 !- Standards Space Type

OS:Rendering:Color,
  {bab619a5-4693-49f4-968c-ce1acbe65d23}, !- Handle
  FullServiceRestaurant Dining,           !- Name
  31,                                     !- Rendering Red Value
  169,                                    !- Rendering Green Value
  34;                                     !- Rendering Blue Value

OS:SpaceType,
  {8ee2e532-baf2-475b-840d-5535b86e6b66}, !- Handle
  FullServiceRestaurant Kitchen,          !- Name
  ,                                       !- Default Construction Set Name
  ,                                       !- Default Schedule Set Name
  {5bd99595-3cb8-4c9c-a86d-cf36d88fafe4}, !- Group Rendering Name
  ,                                       !- Design Specification Outdoor Air Object Name
  ,                                       !- Standards Template
  FullServiceRestaurant,                  !- Standards Building Type
  Kitchen;                                !- Standards Space Type

OS:Rendering:Color,
  {5bd99595-3cb8-4c9c-a86d-cf36d88fafe4}, !- Handle
  FullServiceRestaurant Kitchen,          !- Name
  78,                                     !- Rendering Red Value
  222,                                    !- Rendering Green Value
  133;                                    !- Rendering Blue Value

OS:Building,
  {05a616cc-7ae9-40b8-872c-0ae0bb6fbf6a}, !- Handle
  90.1-2004|LargeHotel|FullServiceRestaurant, !- Name
  ,                                       !- Building Sector Type
  ,                                       !- North Axis {deg}
  ,                                       !- Nominal Floor to Floor Height {m}
  ,                                       !- Space Type Name
  ,                                       !- Default Construction Set Name
  ;                                       !- Default Schedule Set Name

OS:Site,
  {69fba6cb-2cb9-40d8-adc7-61ea16edc94c}, !- Handle
  Site 1,                                 !- Name
  ,                                       !- Latitude {deg}
  ,                                       !- Longitude {deg}
  ,                                       !- Time Zone {hr}
  ,                                       !- Elevation {m}
  ;                                       !- Terrain

OS:BuildingStory,
  {7801a0bb-36db-4ed0-8f6a-0db469626c77}, !- Handle
  Story Ground,                           !- Name
  0,                                      !- Nominal Z Coordinate {m}
  3.048,                                  !- Nominal Floor to Floor Height {m}
  ,                                       !- Default Construction Set Name
  ,                                       !- Default Schedule Set Name
  ;                                       !- Group Rendering Name

OS:Space,
  {3a7aef6e-6cd3-467a-aabc-97386b94d608}, !- Handle
  FullServiceRestaurant Kitchen A end_a - Story Ground, !- Name
  {8ee2e532-baf2-475b-840d-5535b86e6b66}, !- Space Type Name
  ,                                       !- Default Construction Set Name
  ,                                       !- Default Schedule Set Name
  -0,                                     !- Direction of Relative North {deg}
  -38.4791138151595,                      !- X Origin {m}
  -7.54492427748226,                      !- Y Origin {m}
  0,                                      !- Z Origin {m}
  {7801a0bb-36db-4ed0-8f6a-0db469626c77}, !- Building Story Name
  {c93eda57-518e-42af-883b-e5aaf5f4b357}; !- Thermal Zone Name

OS:Surface,
  {b71d39c4-c3e1-49a3-aefe-3e93fd0113f5}, !- Handle
  Surface 1,                              !- Name
  Floor,                                  !- Surface Type
  ,                                       !- Construction Name
  {3a7aef6e-6cd3-467a-aabc-97386b94d608}, !- Space Name
  Ground,                                 !- Outside Boundary Condition
  ,                                       !- Outside Boundary Condition Object
  NoSun,                                  !- Sun Exposure
  NoWind,                                 !- Wind Exposure
  ,                                       !- View Factor to Ground
  ,                                       !- Number of Vertices
  1.4210854715202e-014, -1.77635683940025e-015, 0, !- X,Y,Z Vertex 1 {m}
  1.4210854715202e-014, 4.572, 0,         !- X,Y,Z Vertex 2 {m}
  4.57200000000002, 4.572, 0,             !- X,Y,Z Vertex 3 {m}
  4.57200000000002, -1.77635683940025e-015, 0; !- X,Y,Z Vertex 4 {m}

OS:Surface,
  {268735d6-44bd-4c3a-8a28-5b42ee842ad3}, !- Handle
  Surface 2,                              !- Name
  Wall,                                   !- Surface Type
  ,                                       !- Construction Name
  {3a7aef6e-6cd3-467a-aabc-97386b94d608}, !- Space Name
  Outdoors,                               !- Outside Boundary Condition
  ,                                       !- Outside Boundary Condition Object
  SunExposed,                             !- Sun Exposure
  WindExposed,                            !- Wind Exposure
  ,                                       !- View Factor to Ground
  ,                                       !- Number of Vertices
  1.4210854715202e-014, 4.572, 3.048,     !- X,Y,Z Vertex 1 {m}
  1.4210854715202e-014, 4.572, 0,         !- X,Y,Z Vertex 2 {m}
  1.4210854715202e-014, -1.77635683940025e-015, 0, !- X,Y,Z Vertex 3 {m}
  1.4210854715202e-014, -1.77635683940025e-015, 3.048; !- X,Y,Z Vertex 4 {m}

OS:Surface,
  {537b3fbd-fe2d-4b3f-b41f-c27ac876d41a}, !- Handle
  Surface 3,                              !- Name
  Wall,                                   !- Surface Type
  ,                                       !- Construction Name
  {3a7aef6e-6cd3-467a-aabc-97386b94d608}, !- Space Name
  Surface,                                !- Outside Boundary Condition
  {92b81ec8-b9e3-483c-964c-a6931261940a}, !- Outside Boundary Condition Object
  NoSun,                                  !- Sun Exposure
  NoWind,                                 !- Wind Exposure
  ,                                       !- View Factor to Ground
  ,                                       !- Number of Vertices
  4.57200000000002, 4.572, 3.048,         !- X,Y,Z Vertex 1 {m}
  4.57200000000002, 4.572, 0,             !- X,Y,Z Vertex 2 {m}
  1.4210854715202e-014, 4.572, 0,         !- X,Y,Z Vertex 3 {m}
  1.4210854715202e-014, 4.572, 3.048;     !- X,Y,Z Vertex 4 {m}

OS:Surface,
  {f906ca4b-9acb-49e0-bea8-9ef40468657f}, !- Handle
  Surface 4,                              !- Name
  Wall,                                   !- Surface Type
  ,                                       !- Construction Name
  {3a7aef6e-6cd3-467a-aabc-97386b94d608}, !- Space Name
  Surface,                                !- Outside Boundary Condition
  {fe6a0366-1006-4a08-b887-59deca785c90}, !- Outside Boundary Condition Object
  NoSun,                                  !- Sun Exposure
  NoWind,                                 !- Wind Exposure
  ,                                       !- View Factor to Ground
  ,                                       !- Number of Vertices
  4.57200000000002, -1.77635683940025e-015, 3.048, !- X,Y,Z Vertex 1 {m}
  4.57200000000002, -1.77635683940025e-015, 0, !- X,Y,Z Vertex 2 {m}
  4.57200000000002, 4.572, 0,             !- X,Y,Z Vertex 3 {m}
  4.57200000000002, 4.572, 3.048;         !- X,Y,Z Vertex 4 {m}

OS:Surface,
  {06d061b8-a70f-4cff-920c-ce9f486e2270}, !- Handle
  Surface 5,                              !- Name
  Wall,                                   !- Surface Type
  ,                                       !- Construction Name
  {3a7aef6e-6cd3-467a-aabc-97386b94d608}, !- Space Name
  Outdoors,                               !- Outside Boundary Condition
  ,                                       !- Outside Boundary Condition Object
  SunExposed,                             !- Sun Exposure
  WindExposed,                            !- Wind Exposure
  ,                                       !- View Factor to Ground
  ,                                       !- Number of Vertices
  1.4210854715202e-014, -1.77635683940025e-015, 3.048, !- X,Y,Z Vertex 1 {m}
  1.4210854715202e-014, -1.77635683940025e-015, 0, !- X,Y,Z Vertex 2 {m}
  4.57200000000002, -1.77635683940025e-015, 0, !- X,Y,Z Vertex 3 {m}
  4.57200000000002, -1.77635683940025e-015, 3.048; !- X,Y,Z Vertex 4 {m}

OS:Surface,
  {e8eb859d-f792-4b78-ae88-3258015c162b}, !- Handle
  Surface 6,                              !- Name
  RoofCeiling,                            !- Surface Type
  ,                                       !- Construction Name
  {3a7aef6e-6cd3-467a-aabc-97386b94d608}, !- Space Name
  Adiabatic,                              !- Outside Boundary Condition
  ,                                       !- Outside Boundary Condition Object
  NoSun,                                  !- Sun Exposure
  NoWind,                                 !- Wind Exposure
  ,                                       !- View Factor to Ground
  ,                                       !- Number of Vertices
  4.57200000000002, -1.77635683940025e-015, 3.048, !- X,Y,Z Vertex 1 {m}
  4.57200000000002, 4.572, 3.048,         !- X,Y,Z Vertex 2 {m}
  1.4210854715202e-014, 4.572, 3.048,     !- X,Y,Z Vertex 3 {m}
  1.4210854715202e-014, -1.77635683940025e-015, 3.048; !- X,Y,Z Vertex 4 {m}

OS:ThermalZone,
  {c93eda57-518e-42af-883b-e5aaf5f4b357}, !- Handle
  Zone FullServiceRestaurant Kitchen A end_a - Story Ground, !- Name
  1,                                      !- Multiplier
  ,                                       !- Ceiling Height {m}
  ,                                       !- Volume {m3}
  ,                                       !- Floor Area {m2}
  ,                                       !- Zone Inside Convection Algorithm
  ,                                       !- Zone Outside Convection Algorithm
  ,                                       !- Zone Conditioning Equipment List Name
  {b8a6bd7e-1084-4455-bd60-86b8d3a780b6}, !- Zone Air Inlet Port List
  {f5456727-0c66-498d-a502-2dc43c8fa3e9}, !- Zone Air Exhaust Port List
  {e619424e-f07a-4f89-82ae-f946934d923e}, !- Zone Air Node Name
  {8ebe87be-6dd2-4a5b-8a25-3d8367aa6b39}, !- Zone Return Air Port List
  ,                                       !- Primary Daylighting Control Name
  ,                                       !- Fraction of Zone Controlled by Primary Daylighting Control
  ,                                       !- Secondary Daylighting Control Name
  ,                                       !- Fraction of Zone Controlled by Secondary Daylighting Control
  ,                                       !- Illuminance Map Name
  ,                                       !- Group Rendering Name
  ,                                       !- Thermostat Name
  No;                                     !- Use Ideal Air Loads

OS:Node,
  {e40fe6fb-721f-4be2-867a-ecafa02b8648}, !- Handle
  Node 1,                                 !- Name
  {e619424e-f07a-4f89-82ae-f946934d923e}, !- Inlet Port
  ;                                       !- Outlet Port

OS:Connection,
  {e619424e-f07a-4f89-82ae-f946934d923e}, !- Handle
  {c5e70576-6052-4f61-bb67-2d53eabddbed}, !- Name
  {c93eda57-518e-42af-883b-e5aaf5f4b357}, !- Source Object
  11,                                     !- Outlet Port
  {e40fe6fb-721f-4be2-867a-ecafa02b8648}, !- Target Object
  2;                                      !- Inlet Port

OS:PortList,
  {b8a6bd7e-1084-4455-bd60-86b8d3a780b6}, !- Handle
  {8735666e-d643-49bb-a731-75d06e6ad600}, !- Name
  {c93eda57-518e-42af-883b-e5aaf5f4b357}; !- HVAC Component

OS:PortList,
  {f5456727-0c66-498d-a502-2dc43c8fa3e9}, !- Handle
  {ddda9f4c-2507-4451-ad0d-9d57e3c4f18c}, !- Name
  {c93eda57-518e-42af-883b-e5aaf5f4b357}; !- HVAC Component

OS:PortList,
  {8ebe87be-6dd2-4a5b-8a25-3d8367aa6b39}, !- Handle
  {954349a3-d385-49dd-aa87-77194689171a}, !- Name
  {c93eda57-518e-42af-883b-e5aaf5f4b357}; !- HVAC Component

OS:Sizing:Zone,
  {7f7fd17a-a3a0-4369-ac47-acc22db3c695}, !- Handle
  {c93eda57-518e-42af-883b-e5aaf5f4b357}, !- Zone or ZoneList Name
  SupplyAirTemperature,                   !- Zone Cooling Design Supply Air Temperature Input Method
  14,                                     !- Zone Cooling Design Supply Air Temperature {C}
  11.11,                                  !- Zone Cooling Design Supply Air Temperature Difference {deltaC}
  SupplyAirTemperature,                   !- Zone Heating Design Supply Air Temperature Input Method
  40,                                     !- Zone Heating Design Supply Air Temperature {C}
  11.11,                                  !- Zone Heating Design Supply Air Temperature Difference {deltaC}
  0.0085,                                 !- Zone Cooling Design Supply Air Humidity Ratio {kg-H2O/kg-air}
  0.008,                                  !- Zone Heating Design Supply Air Humidity Ratio {kg-H2O/kg-air}
  ,                                       !- Zone Heating Sizing Factor
  ,                                       !- Zone Cooling Sizing Factor
  DesignDay,                              !- Cooling Design Air Flow Method
  ,                                       !- Cooling Design Air Flow Rate {m3/s}
  ,                                       !- Cooling Minimum Air Flow per Zone Floor Area {m3/s-m2}
  ,                                       !- Cooling Minimum Air Flow {m3/s}
  ,                                       !- Cooling Minimum Air Flow Fraction
  DesignDay,                              !- Heating Design Air Flow Method
  ,                                       !- Heating Design Air Flow Rate {m3/s}
  ,                                       !- Heating Maximum Air Flow per Zone Floor Area {m3/s-m2}
  ,                                       !- Heating Maximum Air Flow {m3/s}
  ,                                       !- Heating Maximum Air Flow Fraction
  ,                                       !- Design Zone Air Distribution Effectiveness in Cooling Mode
  ,                                       !- Design Zone Air Distribution Effectiveness in Heating Mode
  No,                                     !- Account for Dedicated Outdoor Air System
  NeutralSupplyAir,                       !- Dedicated Outdoor Air System Control Strategy
  autosize,                               !- Dedicated Outdoor Air Low Setpoint Temperature for Design {C}
  autosize;                               !- Dedicated Outdoor Air High Setpoint Temperature for Design {C}

OS:ZoneHVAC:EquipmentList,
  {e0de7ef8-d292-4aeb-ae2b-a7c93d6df848}, !- Handle
  Zone HVAC Equipment List 1,             !- Name
  {c93eda57-518e-42af-883b-e5aaf5f4b357}; !- Thermal Zone

OS:Space,
  {7769510e-230a-491d-b144-3371f5701b94}, !- Handle
  FullServiceRestaurant Kitchen B end_a - Story Ground, !- Name
  {8ee2e532-baf2-475b-840d-5535b86e6b66}, !- Space Type Name
  ,                                       !- Default Construction Set Name
  ,                                       !- Default Schedule Set Name
  -0,                                     !- Direction of Relative North {deg}
  -38.4791138151595,                      !- X Origin {m}
  -2.97292427748226,                      !- Y Origin {m}
  0,                                      !- Z Origin {m}
  {7801a0bb-36db-4ed0-8f6a-0db469626c77}, !- Building Story Name
  {7b37d809-20e8-4d66-95da-9c00d2664171}; !- Thermal Zone Name

OS:Surface,
  {750679fe-4cc1-4d14-b3f5-45d34cefe3b2}, !- Handle
  Surface 7,                              !- Name
  Floor,                                  !- Surface Type
  ,                                       !- Construction Name
  {7769510e-230a-491d-b144-3371f5701b94}, !- Space Name
  Ground,                                 !- Outside Boundary Condition
  ,                                       !- Outside Boundary Condition Object
  NoSun,                                  !- Sun Exposure
  NoWind,                                 !- Wind Exposure
  ,                                       !- View Factor to Ground
  ,                                       !- Number of Vertices
  1.4210854715202e-014, -1.77635683940025e-015, 0, !- X,Y,Z Vertex 1 {m}
  1.4210854715202e-014, 5.94584855496452, 0, !- X,Y,Z Vertex 2 {m}
  4.57200000000002, 5.94584855496452, 0,  !- X,Y,Z Vertex 3 {m}
  4.57200000000002, -1.77635683940025e-015, 0; !- X,Y,Z Vertex 4 {m}

OS:Surface,
  {453b23e5-988f-4dc4-9e01-2f4f5a269d3d}, !- Handle
  Surface 8,                              !- Name
  Wall,                                   !- Surface Type
  ,                                       !- Construction Name
  {7769510e-230a-491d-b144-3371f5701b94}, !- Space Name
  Outdoors,                               !- Outside Boundary Condition
  ,                                       !- Outside Boundary Condition Object
  SunExposed,                             !- Sun Exposure
  WindExposed,                            !- Wind Exposure
  ,                                       !- View Factor to Ground
  ,                                       !- Number of Vertices
  1.4210854715202e-014, 5.94584855496452, 3.048, !- X,Y,Z Vertex 1 {m}
  1.4210854715202e-014, 5.94584855496452, 0, !- X,Y,Z Vertex 2 {m}
  1.4210854715202e-014, -1.77635683940025e-015, 0, !- X,Y,Z Vertex 3 {m}
  1.4210854715202e-014, -1.77635683940025e-015, 3.048; !- X,Y,Z Vertex 4 {m}

OS:Surface,
  {c61ee777-e0d5-41fe-abf7-e35a076759bc}, !- Handle
  Surface 9,                              !- Name
  Wall,                                   !- Surface Type
  ,                                       !- Construction Name
  {7769510e-230a-491d-b144-3371f5701b94}, !- Space Name
  Surface,                                !- Outside Boundary Condition
  {51f6eadc-aa30-4ec4-a039-70b72c9874ac}, !- Outside Boundary Condition Object
  NoSun,                                  !- Sun Exposure
  NoWind,                                 !- Wind Exposure
  ,                                       !- View Factor to Ground
  ,                                       !- Number of Vertices
  4.57200000000002, 5.94584855496452, 3.048, !- X,Y,Z Vertex 1 {m}
  4.57200000000002, 5.94584855496452, 0,  !- X,Y,Z Vertex 2 {m}
  1.4210854715202e-014, 5.94584855496452, 0, !- X,Y,Z Vertex 3 {m}
  1.4210854715202e-014, 5.94584855496452, 3.048; !- X,Y,Z Vertex 4 {m}

OS:Surface,
  {f6756ccc-bb36-4742-b74a-e0e13155a71a}, !- Handle
  Surface 10,                             !- Name
  Wall,                                   !- Surface Type
  ,                                       !- Construction Name
  {7769510e-230a-491d-b144-3371f5701b94}, !- Space Name
  Surface,                                !- Outside Boundary Condition
  {8372709c-b730-4515-a3e5-bb7cc7fb84ac}, !- Outside Boundary Condition Object
  NoSun,                                  !- Sun Exposure
  NoWind,                                 !- Wind Exposure
  ,                                       !- View Factor to Ground
  ,                                       !- Number of Vertices
  4.57200000000002, -1.77635683940025e-015, 3.048, !- X,Y,Z Vertex 1 {m}
  4.57200000000002, -1.77635683940025e-015, 0, !- X,Y,Z Vertex 2 {m}
  4.57200000000002, 5.94584855496452, 0,  !- X,Y,Z Vertex 3 {m}
  4.57200000000002, 5.94584855496452, 3.048; !- X,Y,Z Vertex 4 {m}

OS:Surface,
  {92b81ec8-b9e3-483c-964c-a6931261940a}, !- Handle
  Surface 11,                             !- Name
  Wall,                                   !- Surface Type
  ,                                       !- Construction Name
  {7769510e-230a-491d-b144-3371f5701b94}, !- Space Name
  Surface,                                !- Outside Boundary Condition
  {537b3fbd-fe2d-4b3f-b41f-c27ac876d41a}, !- Outside Boundary Condition Object
  NoSun,                                  !- Sun Exposure
  NoWind,                                 !- Wind Exposure
  ,                                       !- View Factor to Ground
  ,                                       !- Number of Vertices