
OS:Version,
  {430be45c-697d-4088-ae88-a5909ee24e4d}, !- Handle
  2.7.2;                                  !- Version Identifier

OS:SpaceType,
  {fa4904ee-afed-4caa-8fd3-80ac2ae65f91}, !- Handle
  LargeHotel Banquet,                     !- Name
  ,                                       !- Default Construction Set Name
  ,                                       !- Default Schedule Set Name
  {707ce44b-24fc-4aaa-80b9-70729d451bc8}, !- Group Rendering Name
  ,                                       !- Design Specification Outdoor Air Object Name
  ,                                       !- Standards Template
  LargeHotel,                             !- Standards Building Type
  Banquet;                                !- Standards Space Type

OS:Rendering:Color,
  {707ce44b-24fc-4aaa-80b9-70729d451bc8}, !- Handle
  LargeHotel Banquet,                     !- Name
  230,                                    !- Rendering Red Value
  196,                                    !- Rendering Green Value
  120;                                    !- Rendering Blue Value

OS:SpaceType,
  {1f307f91-5a83-42b4-939a-faa6062c0275}, !- Handle
  LargeHotel Cafe,                        !- Name
  ,                                       !- Default Construction Set Name
  ,                                       !- Default Schedule Set Name
  {545e2513-db09-4445-ae71-0d232c519c8d}, !- Group Rendering Name
  ,                                       !- Design Specification Outdoor Air Object Name
  ,                                       !- Standards Template
  LargeHotel,                             !- Standards Building Type
  Cafe;                                   !- Standards Space Type

OS:Rendering:Color,
  {545e2513-db09-4445-ae71-0d232c519c8d}, !- Handle
  LargeHotel Cafe,                        !- Name
  31,                                     !- Rendering Red Value
  169,                                    !- Rendering Green Value
  34;                                     !- Rendering Blue Value

OS:SpaceType,
  {5716688b-dd2a-429f-9d57-46589d346b26}, !- Handle
  LargeHotel Corridor,                    !- Name
  ,                                       !- Default Construction Set Name
  ,                                       !- Default Schedule Set Name
  {17b2dbc5-9395-433e-a52d-62cb631b499b}, !- Group Rendering Name
  ,                                       !- Design Specification Outdoor Air Object Name
  ,                                       !- Standards Template
  LargeHotel,                             !- Standards Building Type
  Corridor;                               !- Standards Space Type

OS:Rendering:Color,
  {17b2dbc5-9395-433e-a52d-62cb631b499b}, !- Handle
  LargeHotel Corridor,                    !- Name
  169,                                    !- Rendering Red Value
  31,                                     !- Rendering Green Value
  31;                                     !- Rendering Blue Value

OS:SpaceType,
  {984ddc19-ff83-4b19-9f67-870c2a6d22c9}, !- Handle
  LargeHotel GuestRoom,                   !- Name
  ,                                       !- Default Construction Set Name
  ,                                       !- Default Schedule Set Name
  {1440f178-9edc-4b51-b64c-3ad817591da7}, !- Group Rendering Name
  ,                                       !- Design Specification Outdoor Air Object Name
  ,                                       !- Standards Template
  LargeHotel,                             !- Standards Building Type
  GuestRoom;                              !- Standards Space Type

OS:Rendering:Color,
  {1440f178-9edc-4b51-b64c-3ad817591da7}, !- Handle
  LargeHotel GuestRoom,                   !- Name
  78,                                     !- Rendering Red Value
  167,                                    !- Rendering Green Value
  222;                                    !- Rendering Blue Value

OS:SpaceType,
  {902acf3f-3f81-4f2e-91ca-51c36e02f081}, !- Handle
  LargeHotel Kitchen,                     !- Name
  ,                                       !- Default Construction Set Name
  ,                                       !- Default Schedule Set Name
  {152f377e-6abb-4674-939b-62cec8d8e8a6}, !- Group Rendering Name
  ,                                       !- Design Specification Outdoor Air Object Name
  ,                                       !- Standards Template
  LargeHotel,                             !- Standards Building Type
  Kitchen;                                !- Standards Space Type

OS:Rendering:Color,
  {152f377e-6abb-4674-939b-62cec8d8e8a6}, !- Handle
  LargeHotel Kitchen,                     !- Name
  78,                                     !- Rendering Red Value
  222,                                    !- Rendering Green Value
  133;                                    !- Rendering Blue Value

OS:SpaceType,
  {890e4936-45ef-4601-9376-b87a465d2472}, !- Handle
  LargeHotel Laundry,                     !- Name
  ,                                       !- Default Construction Set Name
  ,                                       !- Default Schedule Set Name
  {49d58fa7-9c1b-4aba-8e7e-f76909081ccc}, !- Group Rendering Name
  ,                                       !- Design Specification Outdoor Air Object Name
  ,                                       !- Standards Template
  LargeHotel,                             !- Standards Building Type
  Laundry;                                !- Standards Space Type

OS:Rendering:Color,
  {49d58fa7-9c1b-4aba-8e7e-f76909081ccc}, !- Handle
  LargeHotel Laundry,                     !- Name
  120,                                    !- Rendering Red Value
  149,                                    !- Rendering Green Value
  230;                                    !- Rendering Blue Value

OS:SpaceType,
  {5b07b4a3-3975-4765-ad4b-f6a24d8d1cba}, !- Handle
  LargeHotel Lobby,                       !- Name
  ,                                       !- Default Construction Set Name
  ,                                       !- Default Schedule Set Name
  {009517a7-2a3c-4716-8b0d-23db15e1e56d}, !- Group Rendering Name
  ,                                       !- Design Specification Outdoor Air Object Name
  ,                                       !- Standards Template
  LargeHotel,                             !- Standards Building Type
  Lobby;                                  !- Standards Space Type

OS:Rendering:Color,
  {009517a7-2a3c-4716-8b0d-23db15e1e56d}, !- Handle
  LargeHotel Lobby,                       !- Name
  230,                                    !- Rendering Red Value
  157,                                    !- Rendering Green Value
  120;                                    !- Rendering Blue Value

OS:SpaceType,
  {16a9b995-bdb9-44f5-a772-689485e2faf7}, !- Handle
  LargeHotel Mechanical,                  !- Name
  ,                                       !- Default Construction Set Name
  ,                                       !- Default Schedule Set Name
  {528deb97-10d7-482e-8c95-37ae003404aa}, !- Group Rendering Name
  ,                                       !- Design Specification Outdoor Air Object Name
  ,                                       !- Standards Template
  LargeHotel,                             !- Standards Building Type
  Mechanical;                             !- Standards Space Type

OS:Rendering:Color,
  {528deb97-10d7-482e-8c95-37ae003404aa}, !- Handle
  LargeHotel Mechanical,                  !- Name
  41,                                     !- Rendering Red Value
  31,                                     !- Rendering Green Value
  169;                                    !- Rendering Blue Value

OS:SpaceType,
  {d684b9bc-7f7d-4907-8b81-8ba84685acf6}, !- Handle
  LargeHotel Retail,                      !- Name
  ,                                       !- Default Construction Set Name
  ,                                       !- Default Schedule Set Name
  {ba6f6470-54ba-4e61-b37c-decbb3cd9d5e}, !- Group Rendering Name
  ,                                       !- Design Specification Outdoor Air Object Name
  ,                                       !- Standards Template
  LargeHotel,                             !- Standards Building Type
  Retail;                                 !- Standards Space Type

OS:Rendering:Color,
  {ba6f6470-54ba-4e61-b37c-decbb3cd9d5e}, !- Handle
  LargeHotel Retail,                      !- Name
  171,                                    !- Rendering Red Value
  222,                                    !- Rendering Green Value
  78;                                     !- Rendering Blue Value

OS:SpaceType,
  {8b457225-b28e-4512-8bb7-08f76c6151da}, !- Handle
  LargeHotel Storage,                     !- Name
  ,                                       !- Default Construction Set Name
  ,                                       !- Default Schedule Set Name
  {844f4886-6640-48b0-84fd-aa0827adef9b}, !- Group Rendering Name
  ,                                       !- Design Specification Outdoor Air Object Name
  ,                                       !- Standards Template
  LargeHotel,                             !- Standards Building Type
  Storage;                                !- Standards Space Type

OS:Rendering:Color,
  {844f4886-6640-48b0-84fd-aa0827adef9b}, !- Handle
  LargeHotel Storage,                     !- Name
  120,                                    !- Rendering Red Value
  149,                                    !- Rendering Green Value
  230;                                    !- Rendering Blue Value

OS:SpaceType,
  {0bbd6958-ede6-4cc3-b2cc-a284a10f67b4}, !- Handle
  FullServiceRestaurant Dining,           !- Name
  ,                                       !- Default Construction Set Name
  ,                                       !- Default Schedule Set Name
  {213fa71f-9f03-4901-aae8-136c357e3f64}, !- Group Rendering Name
  ,                                       !- Design Specification Outdoor Air Object Name
  ,                                       !- Standards Template
  FullServiceRestaurant,                  !- Standards Building Type
  Dining;                                 !- Standards Space Type

OS:Rendering:Color,
  {213fa71f-9f03-4901-aae8-136c357e3f64}, !- Handle
  FullServiceRestaurant Dining,           !- Name
  31,                                     !- Rendering Red Value
  169,                                    !- Rendering Green Value
  34;                                     !- Rendering Blue Value

OS:SpaceType,
  {ec034c32-e37f-4752-8414-5eaf963d4092}, !- Handle
  FullServiceRestaurant Kitchen,          !- Name
  ,                                       !- Default Construction Set Name
  ,                                       !- Default Schedule Set Name
  {7c85694c-56e1-47db-aa04-b26258b8d6bc}, !- Group Rendering Name
  ,                                       !- Design Specification Outdoor Air Object Name
  ,                                       !- Standards Template
  FullServiceRestaurant,                  !- Standards Building Type
  Kitchen;                                !- Standards Space Type

OS:Rendering:Color,
  {7c85694c-56e1-47db-aa04-b26258b8d6bc}, !- Handle
  FullServiceRestaurant Kitchen,          !- Name
  78,                                     !- Rendering Red Value
  222,                                    !- Rendering Green Value
  133;                                    !- Rendering Blue Value

OS:Building,
  {816f4e55-0f14-423b-b314-126e00659048}, !- Handle
  90.1-2004|LargeHotel|FullServiceRestaurant, !- Name
  ,                                       !- Building Sector Type
  ,                                       !- North Axis {deg}
  ,                                       !- Nominal Floor to Floor Height {m}
  ,                                       !- Space Type Name
  ,                                       !- Default Construction Set Name
  ;                                       !- Default Schedule Set Name

OS:Site,
  {93407c9c-0595-4670-bb75-3beccdf7a971}, !- Handle
  Site 1,                                 !- Name
  ,                                       !- Latitude {deg}
  ,                                       !- Longitude {deg}
  ,                                       !- Time Zone {hr}
  ,                                       !- Elevation {m}
  ;                                       !- Terrain

OS:BuildingStory,
  {0b15ff6c-fe72-4416-8775-abba7094e4e4}, !- Handle
  Story Ground,                           !- Name
  0,                                      !- Nominal Z Coordinate {m}
  3.048,                                  !- Nominal Floor to Floor Height {m}
  ,                                       !- Default Construction Set Name
  ,                                       !- Default Schedule Set Name
  ;                                       !- Group Rendering Name

OS:Space,
  {98c3a1d0-2829-4c98-b02e-7f9ac4141ff9}, !- Handle
  FullServiceRestaurant Kitchen A end_a - Story Ground, !- Name
  {ec034c32-e37f-4752-8414-5eaf963d4092}, !- Space Type Name
  ,                                       !- Default Construction Set Name
  ,                                       !- Default Schedule Set Name
  -0,                                     !- Direction of Relative North {deg}
  -38.4791138151595,                      !- X Origin {m}
  -7.54492427748226,                      !- Y Origin {m}
  0,                                      !- Z Origin {m}
  {0b15ff6c-fe72-4416-8775-abba7094e4e4}, !- Building Story Name
  {b0cc93a7-ef24-4cc2-a282-ebb4d289d5d0}; !- Thermal Zone Name

OS:Surface,
  {6cc69c67-6972-4610-b6b6-aca6131983e0}, !- Handle
  Surface 1,                              !- Name
  Floor,                                  !- Surface Type
  ,                                       !- Construction Name
  {98c3a1d0-2829-4c98-b02e-7f9ac4141ff9}, !- Space Name
  Ground,                                 !- Outside Boundary Condition
  ,                                       !- Outside Boundary Condition Object
  NoSun,                                  !- Sun Exposure
  NoWind,                                 !- Wind Exposure
  ,                                       !- View Factor to Ground
  ,                                       !- Number of Vertices
  1.4210854715202e-014, -1.77635683940025e-015, 0, !- X,Y,Z Vertex 1 {m}
  1.4210854715202e-014, 4.572, 0,         !- X,Y,Z Vertex 2 {m}
  4.57200000000002, 4.572, 0,             !- X,Y,Z Vertex 3 {m}
  4.57200000000002, -1.77635683940025e-015, 0; !- X,Y,Z Vertex 4 {m}

OS:Surface,
  {5a84dfb4-35ea-4ec8-a4c6-6fc01bdecab8}, !- Handle
  Surface 2,                              !- Name
  Wall,                                   !- Surface Type
  ,                                       !- Construction Name
  {98c3a1d0-2829-4c98-b02e-7f9ac4141ff9}, !- Space Name
  Outdoors,                               !- Outside Boundary Condition
  ,                                       !- Outside Boundary Condition Object
  SunExposed,                             !- Sun Exposure
  WindExposed,                            !- Wind Exposure
  ,                                       !- View Factor to Ground
  ,                                       !- Number of Vertices
  1.4210854715202e-014, 4.572, 3.048,     !- X,Y,Z Vertex 1 {m}
  1.4210854715202e-014, 4.572, 0,         !- X,Y,Z Vertex 2 {m}
  1.4210854715202e-014, -1.77635683940025e-015, 0, !- X,Y,Z Vertex 3 {m}
  1.4210854715202e-014, -1.77635683940025e-015, 3.048; !- X,Y,Z Vertex 4 {m}

OS:Surface,
  {720862cc-a492-4e4f-9443-a0fa3059eaec}, !- Handle
  Surface 3,                              !- Name
  Wall,                                   !- Surface Type
  ,                                       !- Construction Name
  {98c3a1d0-2829-4c98-b02e-7f9ac4141ff9}, !- Space Name
  Surface,                                !- Outside Boundary Condition
  {79a3d96d-10b8-409e-83cb-89e3e4f65c51}, !- Outside Boundary Condition Object
  NoSun,                                  !- Sun Exposure
  NoWind,                                 !- Wind Exposure
  ,                                       !- View Factor to Ground
  ,                                       !- Number of Vertices
  4.57200000000002, 4.572, 3.048,         !- X,Y,Z Vertex 1 {m}
  4.57200000000002, 4.572, 0,             !- X,Y,Z Vertex 2 {m}
  1.4210854715202e-014, 4.572, 0,         !- X,Y,Z Vertex 3 {m}
  1.4210854715202e-014, 4.572, 3.048;     !- X,Y,Z Vertex 4 {m}

OS:Surface,
  {9b82eb77-204d-4619-ba3c-51f38f74fc39}, !- Handle
  Surface 4,                              !- Name
  Wall,                                   !- Surface Type
  ,                                       !- Construction Name
  {98c3a1d0-2829-4c98-b02e-7f9ac4141ff9}, !- Space Name
  Surface,                                !- Outside Boundary Condition
  {5d8318c0-2d11-485e-80c4-b9c8901eccf5}, !- Outside Boundary Condition Object
  NoSun,                                  !- Sun Exposure
  NoWind,                                 !- Wind Exposure
  ,                                       !- View Factor to Ground
  ,                                       !- Number of Vertices
  4.57200000000002, -1.77635683940025e-015, 3.048, !- X,Y,Z Vertex 1 {m}
  4.57200000000002, -1.77635683940025e-015, 0, !- X,Y,Z Vertex 2 {m}
  4.57200000000002, 4.572, 0,             !- X,Y,Z Vertex 3 {m}
  4.57200000000002, 4.572, 3.048;         !- X,Y,Z Vertex 4 {m}

OS:Surface,
  {a551d455-c78d-4fb1-8d76-8f3ce67a1208}, !- Handle
  Surface 5,                              !- Name
  Wall,                                   !- Surface Type
  ,                                       !- Construction Name
  {98c3a1d0-2829-4c98-b02e-7f9ac4141ff9}, !- Space Name
  Outdoors,                               !- Outside Boundary Condition
  ,                                       !- Outside Boundary Condition Object
  SunExposed,                             !- Sun Exposure
  WindExposed,                            !- Wind Exposure
  ,                                       !- View Factor to Ground
  ,                                       !- Number of Vertices
  1.4210854715202e-014, -1.77635683940025e-015, 3.048, !- X,Y,Z Vertex 1 {m}
  1.4210854715202e-014, -1.77635683940025e-015, 0, !- X,Y,Z Vertex 2 {m}
  4.57200000000002, -1.77635683940025e-015, 0, !- X,Y,Z Vertex 3 {m}
  4.57200000000002, -1.77635683940025e-015, 3.048; !- X,Y,Z Vertex 4 {m}

OS:Surface,
  {7098116a-a819-499f-999e-f5fe3a7c0787}, !- Handle
  Surface 6,                              !- Name
  RoofCeiling,                            !- Surface Type
  ,                                       !- Construction Name
  {98c3a1d0-2829-4c98-b02e-7f9ac4141ff9}, !- Space Name
  Adiabatic,                              !- Outside Boundary Condition
  ,                                       !- Outside Boundary Condition Object
  NoSun,                                  !- Sun Exposure
  NoWind,                                 !- Wind Exposure
  ,                                       !- View Factor to Ground
  ,                                       !- Number of Vertices
  4.57200000000002, -1.77635683940025e-015, 3.048, !- X,Y,Z Vertex 1 {m}
  4.57200000000002, 4.572, 3.048,         !- X,Y,Z Vertex 2 {m}
  1.4210854715202e-014, 4.572, 3.048,     !- X,Y,Z Vertex 3 {m}
  1.4210854715202e-014, -1.77635683940025e-015, 3.048; !- X,Y,Z Vertex 4 {m}

OS:ThermalZone,
  {b0cc93a7-ef24-4cc2-a282-ebb4d289d5d0}, !- Handle
  Zone FullServiceRestaurant Kitchen A end_a - Story Ground, !- Name
  1,                                      !- Multiplier
  ,                                       !- Ceiling Height {m}
  ,                                       !- Volume {m3}
  ,                                       !- Floor Area {m2}
  ,                                       !- Zone Inside Convection Algorithm
  ,                                       !- Zone Outside Convection Algorithm
  ,                                       !- Zone Conditioning Equipment List Name
  {848e42b7-abc9-416d-b315-70ea5182446a}, !- Zone Air Inlet Port List
  {e0d1e66e-166f-4fc1-8a16-4a7c1a246254}, !- Zone Air Exhaust Port List
  {28553832-4f45-4916-ac6e-4f9493cd4116}, !- Zone Air Node Name
  {695506f1-44d5-4b00-a5d7-41d3e5eb3453}, !- Zone Return Air Port List
  ,                                       !- Primary Daylighting Control Name
  ,                                       !- Fraction of Zone Controlled by Primary Daylighting Control
  ,                                       !- Secondary Daylighting Control Name
  ,                                       !- Fraction of Zone Controlled by Secondary Daylighting Control
  ,                                       !- Illuminance Map Name
  ,                                       !- Group Rendering Name
  ,                                       !- Thermostat Name
  No;                                     !- Use Ideal Air Loads

OS:Node,
  {b9901d64-1174-4f96-981b-6bd220ba205d}, !- Handle
  Node 1,                                 !- Name
  {28553832-4f45-4916-ac6e-4f9493cd4116}, !- Inlet Port
  ;                                       !- Outlet Port

OS:Connection,
  {28553832-4f45-4916-ac6e-4f9493cd4116}, !- Handle
  {db030fbf-0403-46e2-8b49-5f00db45bd1d}, !- Name
  {b0cc93a7-ef24-4cc2-a282-ebb4d289d5d0}, !- Source Object
  11,                                     !- Outlet Port
  {b9901d64-1174-4f96-981b-6bd220ba205d}, !- Target Object
  2;                                      !- Inlet Port

OS:PortList,
  {848e42b7-abc9-416d-b315-70ea5182446a}, !- Handle
  {b6c3861d-7753-4dce-abc2-8a98937b45d4}, !- Name
  {b0cc93a7-ef24-4cc2-a282-ebb4d289d5d0}; !- HVAC Component

OS:PortList,
  {e0d1e66e-166f-4fc1-8a16-4a7c1a246254}, !- Handle
  {77da746a-c198-4014-8e01-6352e6a353fc}, !- Name
  {b0cc93a7-ef24-4cc2-a282-ebb4d289d5d0}; !- HVAC Component

OS:PortList,
  {695506f1-44d5-4b00-a5d7-41d3e5eb3453}, !- Handle
  {78009944-15b9-44b8-969c-01779da9ff40}, !- Name
  {b0cc93a7-ef24-4cc2-a282-ebb4d289d5d0}; !- HVAC Component

OS:Sizing:Zone,
  {ee4cd41e-26ea-477a-826b-cf241b750484}, !- Handle
  {b0cc93a7-ef24-4cc2-a282-ebb4d289d5d0}, !- Zone or ZoneList Name
  SupplyAirTemperature,                   !- Zone Cooling Design Supply Air Temperature Input Method
  14,                                     !- Zone Cooling Design Supply Air Temperature {C}
  11.11,                                  !- Zone Cooling Design Supply Air Temperature Difference {deltaC}
  SupplyAirTemperature,                   !- Zone Heating Design Supply Air Temperature Input Method
  40,                                     !- Zone Heating Design Supply Air Temperature {C}
  11.11,                                  !- Zone Heating Design Supply Air Temperature Difference {deltaC}
  0.0085,                                 !- Zone Cooling Design Supply Air Humidity Ratio {kg-H2O/kg-air}
  0.008,                                  !- Zone Heating Design Supply Air Humidity Ratio {kg-H2O/kg-air}
  ,                                       !- Zone Heating Sizing Factor
  ,                                       !- Zone Cooling Sizing Factor
  DesignDay,                              !- Cooling Design Air Flow Method
  ,                                       !- Cooling Design Air Flow Rate {m3/s}
  ,                                       !- Cooling Minimum Air Flow per Zone Floor Area {m3/s-m2}
  ,                                       !- Cooling Minimum Air Flow {m3/s}
  ,                                       !- Cooling Minimum Air Flow Fraction
  DesignDay,                              !- Heating Design Air Flow Method
  ,                                       !- Heating Design Air Flow Rate {m3/s}
  ,                                       !- Heating Maximum Air Flow per Zone Floor Area {m3/s-m2}
  ,                                       !- Heating Maximum Air Flow {m3/s}
  ,                                       !- Heating Maximum Air Flow Fraction
  ,                                       !- Design Zone Air Distribution Effectiveness in Cooling Mode
  ,                                       !- Design Zone Air Distribution Effectiveness in Heating Mode
  No,                                     !- Account for Dedicated Outdoor Air System
  NeutralSupplyAir,                       !- Dedicated Outdoor Air System Control Strategy
  autosize,                               !- Dedicated Outdoor Air Low Setpoint Temperature for Design {C}
  autosize;                               !- Dedicated Outdoor Air High Setpoint Temperature for Design {C}

OS:ZoneHVAC:EquipmentList,
  {34df7472-aef9-433b-ac14-59d46f601f1f}, !- Handle
  Zone HVAC Equipment List 1,             !- Name
  {b0cc93a7-ef24-4cc2-a282-ebb4d289d5d0}; !- Thermal Zone

OS:Space,
  {51d58dcb-93b4-4b74-9a77-cfbc43df01b2}, !- Handle
  FullServiceRestaurant Kitchen B end_a - Story Ground, !- Name
  {ec034c32-e37f-4752-8414-5eaf963d4092}, !- Space Type Name
  ,                                       !- Default Construction Set Name
  ,                                       !- Default Schedule Set Name
  -0,                                     !- Direction of Relative North {deg}
  -38.4791138151595,                      !- X Origin {m}
  -2.97292427748226,                      !- Y Origin {m}
  0,                                      !- Z Origin {m}
  {0b15ff6c-fe72-4416-8775-abba7094e4e4}, !- Building Story Name
  {3e582bd8-4d6f-4eb8-a156-5724800c46f3}; !- Thermal Zone Name

OS:Surface,
  {6b70cd01-1286-4405-a8de-3975d221c98a}, !- Handle
  Surface 7,                              !- Name
  Floor,                                  !- Surface Type
  ,                                       !- Construction Name
  {51d58dcb-93b4-4b74-9a77-cfbc43df01b2}, !- Space Name
  Ground,                                 !- Outside Boundary Condition
  ,                                       !- Outside Boundary Condition Object
  NoSun,                                  !- Sun Exposure
  NoWind,                                 !- Wind Exposure
  ,                                       !- View Factor to Ground
  ,                                       !- Number of Vertices
  1.4210854715202e-014, -1.77635683940025e-015, 0, !- X,Y,Z Vertex 1 {m}
  1.4210854715202e-014, 5.94584855496452, 0, !- X,Y,Z Vertex 2 {m}
  4.57200000000002, 5.94584855496452, 0,  !- X,Y,Z Vertex 3 {m}
  4.57200000000002, -1.77635683940025e-015, 0; !- X,Y,Z Vertex 4 {m}

OS:Surface,
  {4ae3d784-d6fa-4b95-b39b-538f0f89e940}, !- Handle
  Surface 8,                              !- Name
  Wall,                                   !- Surface Type
  ,                                       !- Construction Name
  {51d58dcb-93b4-4b74-9a77-cfbc43df01b2}, !- Space Name
  Outdoors,                               !- Outside Boundary Condition
  ,                                       !- Outside Boundary Condition Object
  SunExposed,                             !- Sun Exposure
  WindExposed,                            !- Wind Exposure
  ,                                       !- View Factor to Ground
  ,                                       !- Number of Vertices
  1.4210854715202e-014, 5.94584855496452, 3.048, !- X,Y,Z Vertex 1 {m}
  1.4210854715202e-014, 5.94584855496452, 0, !- X,Y,Z Vertex 2 {m}
  1.4210854715202e-014, -1.77635683940025e-015, 0, !- X,Y,Z Vertex 3 {m}
  1.4210854715202e-014, -1.77635683940025e-015, 3.048; !- X,Y,Z Vertex 4 {m}

OS:Surface,
  {4e9f89fc-b626-4c3a-a8da-0105c4e9e577}, !- Handle
  Surface 9,                              !- Name
  Wall,                                   !- Surface Type
  ,                                       !- Construction Name
  {51d58dcb-93b4-4b74-9a77-cfbc43df01b2}, !- Space Name
  Surface,                                !- Outside Boundary Condition
  {ee50326a-54b6-495e-afb6-4f92009f491e}, !- Outside Boundary Condition Object
  NoSun,                                  !- Sun Exposure
  NoWind,                                 !- Wind Exposure
  ,                                       !- View Factor to Ground
  ,                                       !- Number of Vertices
  4.57200000000002, 5.94584855496452, 3.048, !- X,Y,Z Vertex 1 {m}
  4.57200000000002, 5.94584855496452, 0,  !- X,Y,Z Vertex 2 {m}
  1.4210854715202e-014, 5.94584855496452, 0, !- X,Y,Z Vertex 3 {m}
  1.4210854715202e-014, 5.94584855496452, 3.048; !- X,Y,Z Vertex 4 {m}

OS:Surface,
  {a2d1a7f4-dbf8-4028-b341-e413acc5fa0c}, !- Handle
  Surface 10,                             !- Name
  Wall,                                   !- Surface Type
  ,                                       !- Construction Name
  {51d58dcb-93b4-4b74-9a77-cfbc43df01b2}, !- Space Name
  Surface,                                !- Outside Boundary Condition
  {a92b827e-c44b-493f-bc4a-c82596a82bb2}, !- Outside Boundary Condition Object
  NoSun,                                  !- Sun Exposure
  NoWind,                                 !- Wind Exposure
  ,                                       !- View Factor to Ground
  ,                                       !- Number of Vertices
  4.57200000000002, -1.77635683940025e-015, 3.048, !- X,Y,Z Vertex 1 {m}
  4.57200000000002, -1.77635683940025e-015, 0, !- X,Y,Z Vertex 2 {m}
  4.57200000000002, 5.94584855496452, 0,  !- X,Y,Z Vertex 3 {m}
  4.57200000000002, 5.94584855496452, 3.048; !- X,Y,Z Vertex 4 {m}

OS:Surface,
  {79a3d96d-10b8-409e-83cb-89e3e4f65c51}, !- Handle
  Surface 11,                             !- Name
  Wall,                                   !- Surface Type
  ,                                       !- Construction Name
  {51d58dcb-93b4-4b74-9a77-cfbc43df01b2}, !- Space Name
  Surface,                                !- Outside Boundary Condition
  {720862cc-a492-4e4f-9443-a0fa3059eaec}, !- Outside Boundary Condition Object
  NoSun,                                  !- Sun Exposure
  NoWind,                                 !- Wind Exposure
  ,                                       !- View Factor to Ground
  ,                                       !- Number of Vertices