
OS:Version,
  {64a333bb-5bf2-44d1-9690-0c725dec3b78}, !- Handle
  2.7.2;                                  !- Version Identifier

OS:SpaceType,
  {490245bb-2b56-438b-ba09-d7b97c83fc11}, !- Handle
  LargeHotel Banquet,                     !- Name
  ,                                       !- Default Construction Set Name
  ,                                       !- Default Schedule Set Name
  {6157e197-0552-4433-9f2b-0f546bda1325}, !- Group Rendering Name
  ,                                       !- Design Specification Outdoor Air Object Name
  ,                                       !- Standards Template
  LargeHotel,                             !- Standards Building Type
  Banquet;                                !- Standards Space Type

OS:Rendering:Color,
  {6157e197-0552-4433-9f2b-0f546bda1325}, !- Handle
  LargeHotel Banquet,                     !- Name
  230,                                    !- Rendering Red Value
  196,                                    !- Rendering Green Value
  120;                                    !- Rendering Blue Value

OS:SpaceType,
  {05648b8a-6589-4dfe-86b9-7f5e1404033b}, !- Handle
  LargeHotel Cafe,                        !- Name
  ,                                       !- Default Construction Set Name
  ,                                       !- Default Schedule Set Name
  {371f9c97-39f4-46e7-8fc0-800102f1bc09}, !- Group Rendering Name
  ,                                       !- Design Specification Outdoor Air Object Name
  ,                                       !- Standards Template
  LargeHotel,                             !- Standards Building Type
  Cafe;                                   !- Standards Space Type

OS:Rendering:Color,
  {371f9c97-39f4-46e7-8fc0-800102f1bc09}, !- Handle
  LargeHotel Cafe,                        !- Name
  31,                                     !- Rendering Red Value
  169,                                    !- Rendering Green Value
  34;                                     !- Rendering Blue Value

OS:SpaceType,
  {fb4d82f5-c6e1-4553-9def-850788498e4c}, !- Handle
  LargeHotel Corridor,                    !- Name
  ,                                       !- Default Construction Set Name
  ,                                       !- Default Schedule Set Name
  {5e9386e5-7013-411c-b7c4-6cbeb639ce32}, !- Group Rendering Name
  ,                                       !- Design Specification Outdoor Air Object Name
  ,                                       !- Standards Template
  LargeHotel,                             !- Standards Building Type
  Corridor;                               !- Standards Space Type

OS:Rendering:Color,
  {5e9386e5-7013-411c-b7c4-6cbeb639ce32}, !- Handle
  LargeHotel Corridor,                    !- Name
  169,                                    !- Rendering Red Value
  31,                                     !- Rendering Green Value
  31;                                     !- Rendering Blue Value

OS:SpaceType,
  {6bd53de7-e456-4fc4-af95-915e62225490}, !- Handle
  LargeHotel GuestRoom,                   !- Name
  ,                                       !- Default Construction Set Name
  ,                                       !- Default Schedule Set Name
  {46f9b4e7-0eb2-4962-879c-2346860c9dbd}, !- Group Rendering Name
  ,                                       !- Design Specification Outdoor Air Object Name
  ,                                       !- Standards Template
  LargeHotel,                             !- Standards Building Type
  GuestRoom;                              !- Standards Space Type

OS:Rendering:Color,
  {46f9b4e7-0eb2-4962-879c-2346860c9dbd}, !- Handle
  LargeHotel GuestRoom,                   !- Name
  78,                                     !- Rendering Red Value
  167,                                    !- Rendering Green Value
  222;                                    !- Rendering Blue Value

OS:SpaceType,
  {816900e0-6bd0-4969-970a-fe93f4d819fa}, !- Handle
  LargeHotel Kitchen,                     !- Name
  ,                                       !- Default Construction Set Name
  ,                                       !- Default Schedule Set Name
  {30ef9d50-ea79-41e3-b6c0-71e0280cf98f}, !- Group Rendering Name
  ,                                       !- Design Specification Outdoor Air Object Name
  ,                                       !- Standards Template
  LargeHotel,                             !- Standards Building Type
  Kitchen;                                !- Standards Space Type

OS:Rendering:Color,
  {30ef9d50-ea79-41e3-b6c0-71e0280cf98f}, !- Handle
  LargeHotel Kitchen,                     !- Name
  78,                                     !- Rendering Red Value
  222,                                    !- Rendering Green Value
  133;                                    !- Rendering Blue Value

OS:SpaceType,
  {7bb8b7f5-1b1e-4c2c-bda2-f6747001b0d8}, !- Handle
  LargeHotel Laundry,                     !- Name
  ,                                       !- Default Construction Set Name
  ,                                       !- Default Schedule Set Name
  {7c414aae-cd39-4ac2-82bd-e2a1b2c68ccd}, !- Group Rendering Name
  ,                                       !- Design Specification Outdoor Air Object Name
  ,                                       !- Standards Template
  LargeHotel,                             !- Standards Building Type
  Laundry;                                !- Standards Space Type

OS:Rendering:Color,
  {7c414aae-cd39-4ac2-82bd-e2a1b2c68ccd}, !- Handle
  LargeHotel Laundry,                     !- Name
  120,                                    !- Rendering Red Value
  149,                                    !- Rendering Green Value
  230;                                    !- Rendering Blue Value

OS:SpaceType,
  {bcf9d999-5859-4149-8bdd-39bb070a8da8}, !- Handle
  LargeHotel Lobby,                       !- Name
  ,                                       !- Default Construction Set Name
  ,                                       !- Default Schedule Set Name
  {b076e1c4-fa03-43d1-8616-3a4edff21746}, !- Group Rendering Name
  ,                                       !- Design Specification Outdoor Air Object Name
  ,                                       !- Standards Template
  LargeHotel,                             !- Standards Building Type
  Lobby;                                  !- Standards Space Type

OS:Rendering:Color,
  {b076e1c4-fa03-43d1-8616-3a4edff21746}, !- Handle
  LargeHotel Lobby,                       !- Name
  230,                                    !- Rendering Red Value
  157,                                    !- Rendering Green Value
  120;                                    !- Rendering Blue Value

OS:SpaceType,
  {1657c959-d68b-4671-8d72-aa500c696bef}, !- Handle
  LargeHotel Mechanical,                  !- Name
  ,                                       !- Default Construction Set Name
  ,                                       !- Default Schedule Set Name
  {13e29303-9c96-47a1-a539-5835083f3952}, !- Group Rendering Name
  ,                                       !- Design Specification Outdoor Air Object Name
  ,                                       !- Standards Template
  LargeHotel,                             !- Standards Building Type
  Mechanical;                             !- Standards Space Type

OS:Rendering:Color,
  {13e29303-9c96-47a1-a539-5835083f3952}, !- Handle
  LargeHotel Mechanical,                  !- Name
  41,                                     !- Rendering Red Value
  31,                                     !- Rendering Green Value
  169;                                    !- Rendering Blue Value

OS:SpaceType,
  {a2a41214-d77e-48d1-990e-5e143e1a2dbc}, !- Handle
  LargeHotel Retail,                      !- Name
  ,                                       !- Default Construction Set Name
  ,                                       !- Default Schedule Set Name
  {10d6cc11-6b88-4ff1-aa7e-585dc3343248}, !- Group Rendering Name
  ,                                       !- Design Specification Outdoor Air Object Name
  ,                                       !- Standards Template
  LargeHotel,                             !- Standards Building Type
  Retail;                                 !- Standards Space Type

OS:Rendering:Color,
  {10d6cc11-6b88-4ff1-aa7e-585dc3343248}, !- Handle
  LargeHotel Retail,                      !- Name
  171,                                    !- Rendering Red Value
  222,                                    !- Rendering Green Value
  78;                                     !- Rendering Blue Value

OS:SpaceType,
  {1140b190-20c8-422b-b5f3-fd91a5667433}, !- Handle
  LargeHotel Storage,                     !- Name
  ,                                       !- Default Construction Set Name
  ,                                       !- Default Schedule Set Name
  {ba41522c-2aa4-4a80-bc5f-329d895cf66d}, !- Group Rendering Name
  ,                                       !- Design Specification Outdoor Air Object Name
  ,                                       !- Standards Template
  LargeHotel,                             !- Standards Building Type
  Storage;                                !- Standards Space Type

OS:Rendering:Color,
  {ba41522c-2aa4-4a80-bc5f-329d895cf66d}, !- Handle
  LargeHotel Storage,                     !- Name
  120,                                    !- Rendering Red Value
  149,                                    !- Rendering Green Value
  230;                                    !- Rendering Blue Value

OS:SpaceType,
  {b1a49d6d-a486-4e12-8d82-6a1564f94376}, !- Handle
  FullServiceRestaurant Dining,           !- Name
  ,                                       !- Default Construction Set Name
  ,                                       !- Default Schedule Set Name
  {3a98a859-e5ca-49a2-8aeb-cc68bcc70de5}, !- Group Rendering Name
  ,                                       !- Design Specification Outdoor Air Object Name
  ,                                       !- Standards Template
  FullServiceRestaurant,                  !- Standards Building Type
  Dining;                                 !- Standards Space Type

OS:Rendering:Color,
  {3a98a859-e5ca-49a2-8aeb-cc68bcc70de5}, !- Handle
  FullServiceRestaurant Dining,           !- Name
  31,                                     !- Rendering Red Value
  169,                                    !- Rendering Green Value
  34;                                     !- Rendering Blue Value

OS:SpaceType,
  {52f0b60e-ba98-4fe2-967e-8aa1d65ad71b}, !- Handle
  FullServiceRestaurant Kitchen,          !- Name
  ,                                       !- Default Construction Set Name
  ,                                       !- Default Schedule Set Name
  {9f244d3a-1853-40f4-bd9c-a6201cb87092}, !- Group Rendering Name
  ,                                       !- Design Specification Outdoor Air Object Name
  ,                                       !- Standards Template
  FullServiceRestaurant,                  !- Standards Building Type
  Kitchen;                                !- Standards Space Type

OS:Rendering:Color,
  {9f244d3a-1853-40f4-bd9c-a6201cb87092}, !- Handle
  FullServiceRestaurant Kitchen,          !- Name
  78,                                     !- Rendering Red Value
  222,                                    !- Rendering Green Value
  133;                                    !- Rendering Blue Value

OS:Building,
  {fb4122d9-983a-489b-a949-7876dceec721}, !- Handle
  90.1-2004|LargeHotel|FullServiceRestaurant, !- Name
  ,                                       !- Building Sector Type
  ,                                       !- North Axis {deg}
  ,                                       !- Nominal Floor to Floor Height {m}
  ,                                       !- Space Type Name
  ,                                       !- Default Construction Set Name
  ;                                       !- Default Schedule Set Name

OS:Site,
  {e65ad921-1df1-4089-8dd9-5da9ff0ad7b4}, !- Handle
  Site 1,                                 !- Name
  ,                                       !- Latitude {deg}
  ,                                       !- Longitude {deg}
  ,                                       !- Time Zone {hr}
  ,                                       !- Elevation {m}
  ;                                       !- Terrain

OS:BuildingStory,
  {55263956-32e7-49ab-9a57-a16be85ae951}, !- Handle
  Story Ground,                           !- Name
  0,                                      !- Nominal Z Coordinate {m}
  3.048,                                  !- Nominal Floor to Floor Height {m}
  ,                                       !- Default Construction Set Name
  ,                                       !- Default Schedule Set Name
  ;                                       !- Group Rendering Name

OS:Space,
  {f6a6c3c4-7c6a-4efa-b7c6-e4afe32eaec4}, !- Handle
  LargeHotel GuestRoom A end_a - Story Ground, !- Name
  {6bd53de7-e456-4fc4-af95-915e62225490}, !- Space Type Name
  ,                                       !- Default Construction Set Name
  ,                                       !- Default Schedule Set Name
  -0,                                     !- Direction of Relative North {deg}
  -38.4791138151595,                      !- X Origin {m}
  -7.54492427748226,                      !- Y Origin {m}
  0,                                      !- Z Origin {m}
  {55263956-32e7-49ab-9a57-a16be85ae951}, !- Building Story Name
  {62ad8cae-43e2-43c4-9932-e81f8f8429fe}; !- Thermal Zone Name

OS:Surface,
  {4151db75-3456-483f-9a1f-b71018c06828}, !- Handle
  Surface 1,                              !- Name
  Floor,                                  !- Surface Type
  ,                                       !- Construction Name
  {f6a6c3c4-7c6a-4efa-b7c6-e4afe32eaec4}, !- Space Name
  Ground,                                 !- Outside Boundary Condition
  ,                                       !- Outside Boundary Condition Object
  NoSun,                                  !- Sun Exposure
  NoWind,                                 !- Wind Exposure
  ,                                       !- View Factor to Ground
  ,                                       !- Number of Vertices
  1.4210854715202e-014, -1.77635683940025e-015, 0, !- X,Y,Z Vertex 1 {m}
  1.4210854715202e-014, 4.572, 0,         !- X,Y,Z Vertex 2 {m}
  4.57200000000002, 4.572, 0,             !- X,Y,Z Vertex 3 {m}
  4.57200000000002, -1.77635683940025e-015, 0; !- X,Y,Z Vertex 4 {m}

OS:Surface,
  {e1d1d8a8-89d5-45e6-b8a1-1f1f0b39ff2f}, !- Handle
  Surface 2,                              !- Name
  Wall,                                   !- Surface Type
  ,                                       !- Construction Name
  {f6a6c3c4-7c6a-4efa-b7c6-e4afe32eaec4}, !- Space Name
  Outdoors,                               !- Outside Boundary Condition
  ,                                       !- Outside Boundary Condition Object
  SunExposed,                             !- Sun Exposure
  WindExposed,                            !- Wind Exposure
  ,                                       !- View Factor to Ground
  ,                                       !- Number of Vertices
  1.4210854715202e-014, 4.572, 3.048,     !- X,Y,Z Vertex 1 {m}
  1.4210854715202e-014, 4.572, 0,         !- X,Y,Z Vertex 2 {m}
  1.4210854715202e-014, -1.77635683940025e-015, 0, !- X,Y,Z Vertex 3 {m}
  1.4210854715202e-014, -1.77635683940025e-015, 3.048; !- X,Y,Z Vertex 4 {m}

OS:Surface,
  {b40ed116-fc7c-418d-b3f5-ee87c165189c}, !- Handle
  Surface 3,                              !- Name
  Wall,                                   !- Surface Type
  ,                                       !- Construction Name
  {f6a6c3c4-7c6a-4efa-b7c6-e4afe32eaec4}, !- Space Name
  Surface,                                !- Outside Boundary Condition
  {3a28acd1-128c-4c31-bca4-72aef9145d0c}, !- Outside Boundary Condition Object
  NoSun,                                  !- Sun Exposure
  NoWind,                                 !- Wind Exposure
  ,                                       !- View Factor to Ground
  ,                                       !- Number of Vertices
  4.57200000000002, 4.572, 3.048,         !- X,Y,Z Vertex 1 {m}
  4.57200000000002, 4.572, 0,             !- X,Y,Z Vertex 2 {m}
  1.4210854715202e-014, 4.572, 0,         !- X,Y,Z Vertex 3 {m}
  1.4210854715202e-014, 4.572, 3.048;     !- X,Y,Z Vertex 4 {m}

OS:Surface,
  {91df6763-9af7-41e6-a0f4-04c45dc7589c}, !- Handle
  Surface 4,                              !- Name
  Wall,                                   !- Surface Type
  ,                                       !- Construction Name
  {f6a6c3c4-7c6a-4efa-b7c6-e4afe32eaec4}, !- Space Name
  Surface,                                !- Outside Boundary Condition
  {32967312-0d1c-4457-856a-34c57395bbea}, !- Outside Boundary Condition Object
  NoSun,                                  !- Sun Exposure
  NoWind,                                 !- Wind Exposure
  ,                                       !- View Factor to Ground
  ,                                       !- Number of Vertices
  4.57200000000002, -1.77635683940025e-015, 3.048, !- X,Y,Z Vertex 1 {m}
  4.57200000000002, -1.77635683940025e-015, 0, !- X,Y,Z Vertex 2 {m}
  4.57200000000002, 4.572, 0,             !- X,Y,Z Vertex 3 {m}
  4.57200000000002, 4.572, 3.048;         !- X,Y,Z Vertex 4 {m}

OS:Surface,
  {3a635474-b8d0-476f-a78c-16f1057a0989}, !- Handle
  Surface 5,                              !- Name
  Wall,                                   !- Surface Type
  ,                                       !- Construction Name
  {f6a6c3c4-7c6a-4efa-b7c6-e4afe32eaec4}, !- Space Name
  Outdoors,                               !- Outside Boundary Condition
  ,                                       !- Outside Boundary Condition Object
  SunExposed,                             !- Sun Exposure
  WindExposed,                            !- Wind Exposure
  ,                                       !- View Factor to Ground
  ,                                       !- Number of Vertices
  1.4210854715202e-014, -1.77635683940025e-015, 3.048, !- X,Y,Z Vertex 1 {m}
  1.4210854715202e-014, -1.77635683940025e-015, 0, !- X,Y,Z Vertex 2 {m}
  4.57200000000002, -1.77635683940025e-015, 0, !- X,Y,Z Vertex 3 {m}
  4.57200000000002, -1.77635683940025e-015, 3.048; !- X,Y,Z Vertex 4 {m}

OS:Surface,
  {f69780a8-296b-4bef-9d6d-db6725625f4f}, !- Handle
  Surface 6,                              !- Name
  RoofCeiling,                            !- Surface Type
  ,                                       !- Construction Name
  {f6a6c3c4-7c6a-4efa-b7c6-e4afe32eaec4}, !- Space Name
  Adiabatic,                              !- Outside Boundary Condition
  ,                                       !- Outside Boundary Condition Object
  NoSun,                                  !- Sun Exposure
  NoWind,                                 !- Wind Exposure
  ,                                       !- View Factor to Ground
  ,                                       !- Number of Vertices
  4.57200000000002, -1.77635683940025e-015, 3.048, !- X,Y,Z Vertex 1 {m}
  4.57200000000002, 4.572, 3.048,         !- X,Y,Z Vertex 2 {m}
  1.4210854715202e-014, 4.572, 3.048,     !- X,Y,Z Vertex 3 {m}
  1.4210854715202e-014, -1.77635683940025e-015, 3.048; !- X,Y,Z Vertex 4 {m}

OS:ThermalZone,
  {62ad8cae-43e2-43c4-9932-e81f8f8429fe}, !- Handle
  Zone LargeHotel GuestRoom A end_a - Story Ground, !- Name
  1,                                      !- Multiplier
  ,                                       !- Ceiling Height {m}
  ,                                       !- Volume {m3}
  ,                                       !- Floor Area {m2}
  ,                                       !- Zone Inside Convection Algorithm
  ,                                       !- Zone Outside Convection Algorithm
  ,                                       !- Zone Conditioning Equipment List Name
  {f039edda-805c-490a-8a96-282cc83ad0f5}, !- Zone Air Inlet Port List
  {5577175b-078b-42f0-a53d-0c19b155810c}, !- Zone Air Exhaust Port List
  {09737968-e8c7-4b11-81b2-6c7f2136f38f}, !- Zone Air Node Name
  {61f7b393-dfb2-422e-9df4-2c95b3916ef8}, !- Zone Return Air Port List
  ,                                       !- Primary Daylighting Control Name
  ,                                       !- Fraction of Zone Controlled by Primary Daylighting Control
  ,                                       !- Secondary Daylighting Control Name
  ,                                       !- Fraction of Zone Controlled by Secondary Daylighting Control
  ,                                       !- Illuminance Map Name
  ,                                       !- Group Rendering Name
  ,                                       !- Thermostat Name
  No;                                     !- Use Ideal Air Loads

OS:Node,
  {0a69819c-befe-4172-86c2-6d2fd27045fe}, !- Handle
  Node 1,                                 !- Name
  {09737968-e8c7-4b11-81b2-6c7f2136f38f}, !- Inlet Port
  ;                                       !- Outlet Port

OS:Connection,
  {09737968-e8c7-4b11-81b2-6c7f2136f38f}, !- Handle
  {3114a773-24c1-4cef-9b23-6b00c42514d6}, !- Name
  {62ad8cae-43e2-43c4-9932-e81f8f8429fe}, !- Source Object
  11,                                     !- Outlet Port
  {0a69819c-befe-4172-86c2-6d2fd27045fe}, !- Target Object
  2;                                      !- Inlet Port

OS:PortList,
  {f039edda-805c-490a-8a96-282cc83ad0f5}, !- Handle
  {e150ae8c-c5e1-47b2-b0a8-c0c6c7709772}, !- Name
  {62ad8cae-43e2-43c4-9932-e81f8f8429fe}; !- HVAC Component

OS:PortList,
  {5577175b-078b-42f0-a53d-0c19b155810c}, !- Handle
  {530dac38-28bd-456c-be3d-3cb07b6b8e37}, !- Name
  {62ad8cae-43e2-43c4-9932-e81f8f8429fe}; !- HVAC Component

OS:PortList,
  {61f7b393-dfb2-422e-9df4-2c95b3916ef8}, !- Handle
  {00e149fe-1406-4927-bdf6-6a0a9e119df7}, !- Name
  {62ad8cae-43e2-43c4-9932-e81f8f8429fe}; !- HVAC Component

OS:Sizing:Zone,
  {13fe436e-a534-47f9-85c6-5882900b0390}, !- Handle
  {62ad8cae-43e2-43c4-9932-e81f8f8429fe}, !- Zone or ZoneList Name
  SupplyAirTemperature,                   !- Zone Cooling Design Supply Air Temperature Input Method
  14,                                     !- Zone Cooling Design Supply Air Temperature {C}
  11.11,                                  !- Zone Cooling Design Supply Air Temperature Difference {deltaC}
  SupplyAirTemperature,                   !- Zone Heating Design Supply Air Temperature Input Method
  40,                                     !- Zone Heating Design Supply Air Temperature {C}
  11.11,                                  !- Zone Heating Design Supply Air Temperature Difference {deltaC}
  0.0085,                                 !- Zone Cooling Design Supply Air Humidity Ratio {kg-H2O/kg-air}
  0.008,                                  !- Zone Heating Design Supply Air Humidity Ratio {kg-H2O/kg-air}
  ,                                       !- Zone Heating Sizing Factor
  ,                                       !- Zone Cooling Sizing Factor
  DesignDay,                              !- Cooling Design Air Flow Method
  ,                                       !- Cooling Design Air Flow Rate {m3/s}
  ,                                       !- Cooling Minimum Air Flow per Zone Floor Area {m3/s-m2}
  ,                                       !- Cooling Minimum Air Flow {m3/s}
  ,                                       !- Cooling Minimum Air Flow Fraction
  DesignDay,                              !- Heating Design Air Flow Method
  ,                                       !- Heating Design Air Flow Rate {m3/s}
  ,                                       !- Heating Maximum Air Flow per Zone Floor Area {m3/s-m2}
  ,                                       !- Heating Maximum Air Flow {m3/s}
  ,                                       !- Heating Maximum Air Flow Fraction
  ,                                       !- Design Zone Air Distribution Effectiveness in Cooling Mode
  ,                                       !- Design Zone Air Distribution Effectiveness in Heating Mode
  No,                                     !- Account for Dedicated Outdoor Air System
  NeutralSupplyAir,                       !- Dedicated Outdoor Air System Control Strategy
  autosize,                               !- Dedicated Outdoor Air Low Setpoint Temperature for Design {C}
  autosize;                               !- Dedicated Outdoor Air High Setpoint Temperature for Design {C}

OS:ZoneHVAC:EquipmentList,
  {0c1dc1a7-5765-404f-9dc0-dcdd2fa518a7}, !- Handle
  Zone HVAC Equipment List 1,             !- Name
  {62ad8cae-43e2-43c4-9932-e81f8f8429fe}; !- Thermal Zone

OS:Space,
  {1f691db1-57ac-4379-b039-a5adf17bb83a}, !- Handle
  LargeHotel GuestRoom B end_a - Story Ground, !- Name
  {6bd53de7-e456-4fc4-af95-915e62225490}, !- Space Type Name
  ,                                       !- Default Construction Set Name
  ,                                       !- Default Schedule Set Name
  -0,                                     !- Direction of Relative North {deg}
  -38.4791138151595,                      !- X Origin {m}
  -2.97292427748226,                      !- Y Origin {m}
  0,                                      !- Z Origin {m}
  {55263956-32e7-49ab-9a57-a16be85ae951}, !- Building Story Name
  {3ca0fb36-a808-4c31-b166-87bda2282044}; !- Thermal Zone Name

OS:Surface,
  {bf288b73-7871-4d13-a00b-37af31c80e5d}, !- Handle
  Surface 7,                              !- Name
  Floor,                                  !- Surface Type
  ,                                       !- Construction Name
  {1f691db1-57ac-4379-b039-a5adf17bb83a}, !- Space Name
  Ground,                                 !- Outside Boundary Condition
  ,                                       !- Outside Boundary Condition Object
  NoSun,                                  !- Sun Exposure
  NoWind,                                 !- Wind Exposure
  ,                                       !- View Factor to Ground
  ,                                       !- Number of Vertices
  1.4210854715202e-014, -1.77635683940025e-015, 0, !- X,Y,Z Vertex 1 {m}
  1.4210854715202e-014, 5.94584855496452, 0, !- X,Y,Z Vertex 2 {m}
  4.57200000000002, 5.94584855496452, 0,  !- X,Y,Z Vertex 3 {m}
  4.57200000000002, -1.77635683940025e-015, 0; !- X,Y,Z Vertex 4 {m}

OS:Surface,
  {1b4c5469-ac6a-4dd0-a116-f759d24c6b85}, !- Handle
  Surface 8,                              !- Name
  Wall,                                   !- Surface Type
  ,                                       !- Construction Name
  {1f691db1-57ac-4379-b039-a5adf17bb83a}, !- Space Name
  Outdoors,                               !- Outside Boundary Condition
  ,                                       !- Outside Boundary Condition Object
  SunExposed,                             !- Sun Exposure
  WindExposed,                            !- Wind Exposure
  ,                                       !- View Factor to Ground
  ,                                       !- Number of Vertices
  1.4210854715202e-014, 5.94584855496452, 3.048, !- X,Y,Z Vertex 1 {m}
  1.4210854715202e-014, 5.94584855496452, 0, !- X,Y,Z Vertex 2 {m}
  1.4210854715202e-014, -1.77635683940025e-015, 0, !- X,Y,Z Vertex 3 {m}
  1.4210854715202e-014, -1.77635683940025e-015, 3.048; !- X,Y,Z Vertex 4 {m}

OS:Surface,
  {bfd5b440-9b3d-4b28-b296-85a011956c7d}, !- Handle
  Surface 9,                              !- Name
  Wall,                                   !- Surface Type
  ,                                       !- Construction Name
  {1f691db1-57ac-4379-b039-a5adf17bb83a}, !- Space Name
  Surface,                                !- Outside Boundary Condition
  {ee4bb7b4-9960-4a6e-a57d-19c96186e52f}, !- Outside Boundary Condition Object
  NoSun,                                  !- Sun Exposure
  NoWind,                                 !- Wind Exposure
  ,                                       !- View Factor to Ground
  ,                                       !- Number of Vertices
  4.57200000000002, 5.94584855496452, 3.048, !- X,Y,Z Vertex 1 {m}
  4.57200000000002, 5.94584855496452, 0,  !- X,Y,Z Vertex 2 {m}
  1.4210854715202e-014, 5.94584855496452, 0, !- X,Y,Z Vertex 3 {m}
  1.4210854715202e-014, 5.94584855496452, 3.048; !- X,Y,Z Vertex 4 {m}

OS:Surface,
  {f2b8d937-ec16-404b-b259-15056d837e7f}, !- Handle
  Surface 10,                             !- Name
  Wall,                                   !- Surface Type
  ,                                       !- Construction Name
  {1f691db1-57ac-4379-b039-a5adf17bb83a}, !- Space Name
  Surface,                                !- Outside Boundary Condition
  {e9c02710-7690-418f-9719-83bda1a07238}, !- Outside Boundary Condition Object
  NoSun,                                  !- Sun Exposure
  NoWind,                                 !- Wind Exposure
  ,                                       !- View Factor to Ground
  ,                                       !- Number of Vertices
  4.57200000000002, -1.77635683940025e-015, 3.048, !- X,Y,Z Vertex 1 {m}
  4.57200000000002, -1.77635683940025e-015, 0, !- X,Y,Z Vertex 2 {m}
  4.57200000000002, 5.94584855496452, 0,  !- X,Y,Z Vertex 3 {m}
  4.57200000000002, 5.94584855496452, 3.048; !- X,Y,Z Vertex 4 {m}

OS:Surface,
  {3a28acd1-128c-4c31-bca4-72aef9145d0c}, !- Handle
  Surface 11,                             !- Name
  Wall,                                   !- Surface Type
  ,                                       !- Construction Name
  {1f691db1-57ac-4379-b039-a5adf17bb83a}, !- Space Name
  Surface,                                !- Outside Boundary Condition
  {b40ed116-fc7c-418d-b3f5-ee87c165189c}, !- Outside Boundary Condition Object
  NoSun,                                  !- Sun Exposure
  NoWind,                                 !- Wind Exposure
  ,                                       !- View Factor to Ground
  ,                                       !- Number of Vertices
  1.4210854715202e-014, -1.77635683940025e-015, 3.048, !- X,Y,Z Vertex 1 {m}