
OS:Version,
  {07aee8b6-410c-4d80-bf74-88b7be5adc29}, !- Handle
  2.7.2;                                  !- Version Identifier

OS:SpaceType,
  {2f7eaaa2-d4dd-4ca6-aa89-26381445e1fc}, !- Handle
  LargeHotel Banquet,                     !- Name
  ,                                       !- Default Construction Set Name
  ,                                       !- Default Schedule Set Name
  {96abafff-6ba8-4a2b-bd68-8c31fffd5350}, !- Group Rendering Name
  ,                                       !- Design Specification Outdoor Air Object Name
  ,                                       !- Standards Template
  LargeHotel,                             !- Standards Building Type
  Banquet;                                !- Standards Space Type

OS:Rendering:Color,
  {96abafff-6ba8-4a2b-bd68-8c31fffd5350}, !- Handle
  LargeHotel Banquet,                     !- Name
  230,                                    !- Rendering Red Value
  196,                                    !- Rendering Green Value
  120;                                    !- Rendering Blue Value

OS:SpaceType,
  {08b20c43-ac60-4c35-ac65-398eb2770a41}, !- Handle
  LargeHotel Cafe,                        !- Name
  ,                                       !- Default Construction Set Name
  ,                                       !- Default Schedule Set Name
  {4d1724a9-b92d-41dd-8648-fb6f7482b75f}, !- Group Rendering Name
  ,                                       !- Design Specification Outdoor Air Object Name
  ,                                       !- Standards Template
  LargeHotel,                             !- Standards Building Type
  Cafe;                                   !- Standards Space Type

OS:Rendering:Color,
  {4d1724a9-b92d-41dd-8648-fb6f7482b75f}, !- Handle
  LargeHotel Cafe,                        !- Name
  31,                                     !- Rendering Red Value
  169,                                    !- Rendering Green Value
  34;                                     !- Rendering Blue Value

OS:SpaceType,
  {5f0c4b4f-66f0-4daf-b1e7-fd5c5f86f867}, !- Handle
  LargeHotel Corridor,                    !- Name
  ,                                       !- Default Construction Set Name
  ,                                       !- Default Schedule Set Name
  {364f3ef1-1e29-4dc6-ac05-074405b54a0e}, !- Group Rendering Name
  ,                                       !- Design Specification Outdoor Air Object Name
  ,                                       !- Standards Template
  LargeHotel,                             !- Standards Building Type
  Corridor;                               !- Standards Space Type

OS:Rendering:Color,
  {364f3ef1-1e29-4dc6-ac05-074405b54a0e}, !- Handle
  LargeHotel Corridor,                    !- Name
  169,                                    !- Rendering Red Value
  31,                                     !- Rendering Green Value
  31;                                     !- Rendering Blue Value

OS:SpaceType,
  {e9f72814-87bc-417c-8f9f-a2a5219bcd16}, !- Handle
  LargeHotel GuestRoom,                   !- Name
  ,                                       !- Default Construction Set Name
  ,                                       !- Default Schedule Set Name
  {332b46c6-7d15-4034-83e9-cac8833bad7b}, !- Group Rendering Name
  ,                                       !- Design Specification Outdoor Air Object Name
  ,                                       !- Standards Template
  LargeHotel,                             !- Standards Building Type
  GuestRoom;                              !- Standards Space Type

OS:Rendering:Color,
  {332b46c6-7d15-4034-83e9-cac8833bad7b}, !- Handle
  LargeHotel GuestRoom,                   !- Name
  78,                                     !- Rendering Red Value
  167,                                    !- Rendering Green Value
  222;                                    !- Rendering Blue Value

OS:SpaceType,
  {7a929419-8036-413e-b2c3-e0deeb16257d}, !- Handle
  LargeHotel Kitchen,                     !- Name
  ,                                       !- Default Construction Set Name
  ,                                       !- Default Schedule Set Name
  {e0fb4355-417c-4634-97a0-88c9fbaf6cff}, !- Group Rendering Name
  ,                                       !- Design Specification Outdoor Air Object Name
  ,                                       !- Standards Template
  LargeHotel,                             !- Standards Building Type
  Kitchen;                                !- Standards Space Type

OS:Rendering:Color,
  {e0fb4355-417c-4634-97a0-88c9fbaf6cff}, !- Handle
  LargeHotel Kitchen,                     !- Name
  78,                                     !- Rendering Red Value
  222,                                    !- Rendering Green Value
  133;                                    !- Rendering Blue Value

OS:SpaceType,
  {f3e0526e-8bf6-472d-ad51-4ec447c7e061}, !- Handle
  LargeHotel Laundry,                     !- Name
  ,                                       !- Default Construction Set Name
  ,                                       !- Default Schedule Set Name
  {2e967131-c9dd-41b1-b4ff-aa8b2d5d7dd6}, !- Group Rendering Name
  ,                                       !- Design Specification Outdoor Air Object Name
  ,                                       !- Standards Template
  LargeHotel,                             !- Standards Building Type
  Laundry;                                !- Standards Space Type

OS:Rendering:Color,
  {2e967131-c9dd-41b1-b4ff-aa8b2d5d7dd6}, !- Handle
  LargeHotel Laundry,                     !- Name
  120,                                    !- Rendering Red Value
  149,                                    !- Rendering Green Value
  230;                                    !- Rendering Blue Value

OS:SpaceType,
  {5707255f-187a-4592-b67d-2b74db4aa73a}, !- Handle
  LargeHotel Lobby,                       !- Name
  ,                                       !- Default Construction Set Name
  ,                                       !- Default Schedule Set Name
  {c12fed82-3395-49d4-9709-d403009ee3e9}, !- Group Rendering Name
  ,                                       !- Design Specification Outdoor Air Object Name
  ,                                       !- Standards Template
  LargeHotel,                             !- Standards Building Type
  Lobby;                                  !- Standards Space Type

OS:Rendering:Color,
  {c12fed82-3395-49d4-9709-d403009ee3e9}, !- Handle
  LargeHotel Lobby,                       !- Name
  230,                                    !- Rendering Red Value
  157,                                    !- Rendering Green Value
  120;                                    !- Rendering Blue Value

OS:SpaceType,
  {6b713168-f0dc-4980-b85b-872d56c78b92}, !- Handle
  LargeHotel Mechanical,                  !- Name
  ,                                       !- Default Construction Set Name
  ,                                       !- Default Schedule Set Name
  {8c036f94-5d0a-4316-a33e-3db6bf7c3245}, !- Group Rendering Name
  ,                                       !- Design Specification Outdoor Air Object Name
  ,                                       !- Standards Template
  LargeHotel,                             !- Standards Building Type
  Mechanical;                             !- Standards Space Type

OS:Rendering:Color,
  {8c036f94-5d0a-4316-a33e-3db6bf7c3245}, !- Handle
  LargeHotel Mechanical,                  !- Name
  41,                                     !- Rendering Red Value
  31,                                     !- Rendering Green Value
  169;                                    !- Rendering Blue Value

OS:SpaceType,
  {f968fc33-03fe-49df-9ba1-8e7ab57e09bb}, !- Handle
  LargeHotel Retail,                      !- Name
  ,                                       !- Default Construction Set Name
  ,                                       !- Default Schedule Set Name
  {5b136221-cf05-4e6a-92d5-385bbe9b9794}, !- Group Rendering Name
  ,                                       !- Design Specification Outdoor Air Object Name
  ,                                       !- Standards Template
  LargeHotel,                             !- Standards Building Type
  Retail;                                 !- Standards Space Type

OS:Rendering:Color,
  {5b136221-cf05-4e6a-92d5-385bbe9b9794}, !- Handle
  LargeHotel Retail,                      !- Name
  171,                                    !- Rendering Red Value
  222,                                    !- Rendering Green Value
  78;                                     !- Rendering Blue Value

OS:SpaceType,
  {d5603425-c136-4993-8e30-b6a515a690ad}, !- Handle
  LargeHotel Storage,                     !- Name
  ,                                       !- Default Construction Set Name
  ,                                       !- Default Schedule Set Name
  {f26e32ef-d7e5-4797-80b2-2a78840e5e0d}, !- Group Rendering Name
  ,                                       !- Design Specification Outdoor Air Object Name
  ,                                       !- Standards Template
  LargeHotel,                             !- Standards Building Type
  Storage;                                !- Standards Space Type

OS:Rendering:Color,
  {f26e32ef-d7e5-4797-80b2-2a78840e5e0d}, !- Handle
  LargeHotel Storage,                     !- Name
  120,                                    !- Rendering Red Value
  149,                                    !- Rendering Green Value
  230;                                    !- Rendering Blue Value

OS:SpaceType,
  {1e9d68cb-bf70-4e66-9c7b-5a1952bebd9b}, !- Handle
  FullServiceRestaurant Dining,           !- Name
  ,                                       !- Default Construction Set Name
  ,                                       !- Default Schedule Set Name
  {6d17296b-0d4d-44d7-a7d1-ede11713b392}, !- Group Rendering Name
  ,                                       !- Design Specification Outdoor Air Object Name
  ,                                       !- Standards Template
  FullServiceRestaurant,                  !- Standards Building Type
  Dining;                                 !- Standards Space Type

OS:Rendering:Color,
  {6d17296b-0d4d-44d7-a7d1-ede11713b392}, !- Handle
  FullServiceRestaurant Dining,           !- Name
  31,                                     !- Rendering Red Value
  169,                                    !- Rendering Green Value
  34;                                     !- Rendering Blue Value

OS:SpaceType,
  {40fcaad1-b339-4d7b-8610-f3715ba0156a}, !- Handle
  FullServiceRestaurant Kitchen,          !- Name
  ,                                       !- Default Construction Set Name
  ,                                       !- Default Schedule Set Name
  {25e8f6d8-f7af-4f21-a7bd-a7e1c2ea85dc}, !- Group Rendering Name
  ,                                       !- Design Specification Outdoor Air Object Name
  ,                                       !- Standards Template
  FullServiceRestaurant,                  !- Standards Building Type
  Kitchen;                                !- Standards Space Type

OS:Rendering:Color,
  {25e8f6d8-f7af-4f21-a7bd-a7e1c2ea85dc}, !- Handle
  FullServiceRestaurant Kitchen,          !- Name
  78,                                     !- Rendering Red Value
  222,                                    !- Rendering Green Value
  133;                                    !- Rendering Blue Value

OS:Building,
  {9c270934-5300-4a86-bc05-ccfbdece0ba1}, !- Handle
  90.1-2004|LargeHotel|FullServiceRestaurant, !- Name
  ,                                       !- Building Sector Type
  ,                                       !- North Axis {deg}
  ,                                       !- Nominal Floor to Floor Height {m}
  ,                                       !- Space Type Name
  ,                                       !- Default Construction Set Name
  ;                                       !- Default Schedule Set Name

OS:Site,
  {c895ead4-d536-4e44-9c42-fb55614d274b}, !- Handle
  Site 1,                                 !- Name
  ,                                       !- Latitude {deg}
  ,                                       !- Longitude {deg}
  ,                                       !- Time Zone {hr}
  ,                                       !- Elevation {m}
  ;                                       !- Terrain

OS:BuildingStory,
  {350b4c1e-4deb-494c-b9f0-7762bc9570dd}, !- Handle
  Story B1,                               !- Name
  -3.048,                                 !- Nominal Z Coordinate {m}
  3.048,                                  !- Nominal Floor to Floor Height {m}
  ,                                       !- Default Construction Set Name
  ,                                       !- Default Schedule Set Name
  ;                                       !- Group Rendering Name

OS:Space,
  {c6757c30-b216-4eac-bc11-4bbb152c8cdf}, !- Handle
  LargeHotel Cafe A end_a - Story B1,     !- Name
  {08b20c43-ac60-4c35-ac65-398eb2770a41}, !- Space Type Name
  ,                                       !- Default Construction Set Name
  ,                                       !- Default Schedule Set Name
  -0,                                     !- Direction of Relative North {deg}
  -20.3992205733454,                      !- X Origin {m}
  -9.48800956899788,                      !- Y Origin {m}
  -3.048,                                 !- Z Origin {m}
  {350b4c1e-4deb-494c-b9f0-7762bc9570dd}, !- Building Story Name
  {3ad28663-fb00-414a-8d28-af9b88a93a9e}; !- Thermal Zone Name

OS:Surface,
  {6a6468c1-84f4-451e-9dba-d22117096461}, !- Handle
  Surface 1,                              !- Name
  Floor,                                  !- Surface Type
  ,                                       !- Construction Name
  {c6757c30-b216-4eac-bc11-4bbb152c8cdf}, !- Space Name
  Ground,                                 !- Outside Boundary Condition
  ,                                       !- Outside Boundary Condition Object
  NoSun,                                  !- Sun Exposure
  NoWind,                                 !- Wind Exposure
  ,                                       !- View Factor to Ground
  ,                                       !- Number of Vertices
  4.61852778244065e-014, 0, 0,            !- X,Y,Z Vertex 1 {m}
  4.61852778244065e-014, 4.572, 0,        !- X,Y,Z Vertex 2 {m}
  4.57200000000005, 4.572, 0,             !- X,Y,Z Vertex 3 {m}
  4.57200000000005, 0, 0;                 !- X,Y,Z Vertex 4 {m}

OS:Surface,
  {26f07352-a04d-496c-a742-9bbb6cc509ab}, !- Handle
  Surface 2,                              !- Name
  Wall,                                   !- Surface Type
  ,                                       !- Construction Name
  {c6757c30-b216-4eac-bc11-4bbb152c8cdf}, !- Space Name
  Ground,                                 !- Outside Boundary Condition
  ,                                       !- Outside Boundary Condition Object
  NoSun,                                  !- Sun Exposure
  NoWind,                                 !- Wind Exposure
  ,                                       !- View Factor to Ground
  ,                                       !- Number of Vertices
  4.61852778244065e-014, 4.572, 3.048,    !- X,Y,Z Vertex 1 {m}
  4.61852778244065e-014, 4.572, 0,        !- X,Y,Z Vertex 2 {m}
  4.61852778244065e-014, 0, 0,            !- X,Y,Z Vertex 3 {m}
  4.61852778244065e-014, 0, 3.048;        !- X,Y,Z Vertex 4 {m}

OS:Surface,
  {3617dba2-acd8-4534-b8d6-ff4ba8a5bea7}, !- Handle
  Surface 3,                              !- Name
  Wall,                                   !- Surface Type
  ,                                       !- Construction Name
  {c6757c30-b216-4eac-bc11-4bbb152c8cdf}, !- Space Name
  Surface,                                !- Outside Boundary Condition
  {af6b0c76-8f07-4b6b-8a08-ebb49fe761e1}, !- Outside Boundary Condition Object
  NoSun,                                  !- Sun Exposure
  NoWind,                                 !- Wind Exposure
  ,                                       !- View Factor to Ground
  ,                                       !- Number of Vertices
  4.57200000000005, 4.572, 3.048,         !- X,Y,Z Vertex 1 {m}
  4.57200000000005, 4.572, 0,             !- X,Y,Z Vertex 2 {m}
  4.61852778244065e-014, 4.572, 0,        !- X,Y,Z Vertex 3 {m}
  4.61852778244065e-014, 4.572, 3.048;    !- X,Y,Z Vertex 4 {m}

OS:Surface,
  {216624fe-6e62-4ca7-be65-c86454f6fdfc}, !- Handle
  Surface 4,                              !- Name
  Wall,                                   !- Surface Type
  ,                                       !- Construction Name
  {c6757c30-b216-4eac-bc11-4bbb152c8cdf}, !- Space Name
  Surface,                                !- Outside Boundary Condition
  {180b93ec-7dd6-484f-82e2-387387e361ac}, !- Outside Boundary Condition Object
  NoSun,                                  !- Sun Exposure
  NoWind,                                 !- Wind Exposure
  ,                                       !- View Factor to Ground
  ,                                       !- Number of Vertices
  4.57200000000005, 0, 3.048,             !- X,Y,Z Vertex 1 {m}
  4.57200000000005, 0, 0,                 !- X,Y,Z Vertex 2 {m}
  4.57200000000005, 4.572, 0,             !- X,Y,Z Vertex 3 {m}
  4.57200000000005, 4.572, 3.048;         !- X,Y,Z Vertex 4 {m}

OS:Surface,
  {e6971384-0e32-47f2-bd79-c001d9a5fd6c}, !- Handle
  Surface 5,                              !- Name
  Wall,                                   !- Surface Type
  ,                                       !- Construction Name
  {c6757c30-b216-4eac-bc11-4bbb152c8cdf}, !- Space Name
  Ground,                                 !- Outside Boundary Condition
  ,                                       !- Outside Boundary Condition Object
  NoSun,                                  !- Sun Exposure
  NoWind,                                 !- Wind Exposure
  ,                                       !- View Factor to Ground
  ,                                       !- Number of Vertices
  4.61852778244065e-014, 0, 3.048,        !- X,Y,Z Vertex 1 {m}
  4.61852778244065e-014, 0, 0,            !- X,Y,Z Vertex 2 {m}
  4.57200000000005, 0, 0,                 !- X,Y,Z Vertex 3 {m}
  4.57200000000005, 0, 3.048;             !- X,Y,Z Vertex 4 {m}

OS:Surface,
  {fda6ffd1-a1ea-4033-af3e-207c7e3ab5d6}, !- Handle
  Surface 6,                              !- Name
  RoofCeiling,                            !- Surface Type
  ,                                       !- Construction Name
  {c6757c30-b216-4eac-bc11-4bbb152c8cdf}, !- Space Name
  Surface,                                !- Outside Boundary Condition
  {c5c7ee0b-c7fa-4369-a646-63910695a41b}, !- Outside Boundary Condition Object
  NoSun,                                  !- Sun Exposure
  NoWind,                                 !- Wind Exposure
  ,                                       !- View Factor to Ground
  ,                                       !- Number of Vertices
  4.57200000000005, 0, 3.048,             !- X,Y,Z Vertex 1 {m}
  4.57200000000005, 4.572, 3.048,         !- X,Y,Z Vertex 2 {m}
  4.61852778244065e-014, 4.572, 3.048,    !- X,Y,Z Vertex 3 {m}
  4.61852778244065e-014, 0, 3.048;        !- X,Y,Z Vertex 4 {m}

OS:ThermalZone,
  {3ad28663-fb00-414a-8d28-af9b88a93a9e}, !- Handle
  Zone LargeHotel Cafe A end_a - Story B1, !- Name
  1,                                      !- Multiplier
  ,                                       !- Ceiling Height {m}
  ,                                       !- Volume {m3}
  ,                                       !- Floor Area {m2}
  ,                                       !- Zone Inside Convection Algorithm
  ,                                       !- Zone Outside Convection Algorithm
  ,                                       !- Zone Conditioning Equipment List Name
  {30e52554-d3f1-4fd4-82c4-05bd1fcb8c1b}, !- Zone Air Inlet Port List
  {d74648b7-ceb6-4380-8cef-6bab3b0f744a}, !- Zone Air Exhaust Port List
  {e3282111-8230-4165-9bd4-1f296e77f4e8}, !- Zone Air Node Name
  {0ed4e686-4cf8-4b56-ac76-5dc7618f05da}, !- Zone Return Air Port List
  ,                                       !- Primary Daylighting Control Name
  ,                                       !- Fraction of Zone Controlled by Primary Daylighting Control
  ,                                       !- Secondary Daylighting Control Name
  ,                                       !- Fraction of Zone Controlled by Secondary Daylighting Control
  ,                                       !- Illuminance Map Name
  ,                                       !- Group Rendering Name
  ,                                       !- Thermostat Name
  No;                                     !- Use Ideal Air Loads

OS:Node,
  {09f8eddd-d2cc-44ea-acc4-165e1905efca}, !- Handle
  Node 1,                                 !- Name
  {e3282111-8230-4165-9bd4-1f296e77f4e8}, !- Inlet Port
  ;                                       !- Outlet Port

OS:Connection,
  {e3282111-8230-4165-9bd4-1f296e77f4e8}, !- Handle
  {91e499e7-0dc1-4a24-96c9-c8e0908b3078}, !- Name
  {3ad28663-fb00-414a-8d28-af9b88a93a9e}, !- Source Object
  11,                                     !- Outlet Port
  {09f8eddd-d2cc-44ea-acc4-165e1905efca}, !- Target Object
  2;                                      !- Inlet Port

OS:PortList,
  {30e52554-d3f1-4fd4-82c4-05bd1fcb8c1b}, !- Handle
  {018786b5-222e-4ade-bbca-9b99d63bcc95}, !- Name
  {3ad28663-fb00-414a-8d28-af9b88a93a9e}; !- HVAC Component

OS:PortList,
  {d74648b7-ceb6-4380-8cef-6bab3b0f744a}, !- Handle
  {2aefa33c-1cb9-4c01-866d-8013d882c998}, !- Name
  {3ad28663-fb00-414a-8d28-af9b88a93a9e}; !- HVAC Component

OS:PortList,
  {0ed4e686-4cf8-4b56-ac76-5dc7618f05da}, !- Handle
  {27306309-41e0-477e-893f-724637d976ba}, !- Name
  {3ad28663-fb00-414a-8d28-af9b88a93a9e}; !- HVAC Component

OS:Sizing:Zone,
  {b955e38f-6ddc-4c9f-b8e2-0b2317fe73f6}, !- Handle
  {3ad28663-fb00-414a-8d28-af9b88a93a9e}, !- Zone or ZoneList Name
  SupplyAirTemperature,                   !- Zone Cooling Design Supply Air Temperature Input Method
  14,                                     !- Zone Cooling Design Supply Air Temperature {C}
  11.11,                                  !- Zone Cooling Design Supply Air Temperature Difference {deltaC}
  SupplyAirTemperature,                   !- Zone Heating Design Supply Air Temperature Input Method
  40,                                     !- Zone Heating Design Supply Air Temperature {C}
  11.11,                                  !- Zone Heating Design Supply Air Temperature Difference {deltaC}
  0.0085,                                 !- Zone Cooling Design Supply Air Humidity Ratio {kg-H2O/kg-air}
  0.008,                                  !- Zone Heating Design Supply Air Humidity Ratio {kg-H2O/kg-air}
  ,                                       !- Zone Heating Sizing Factor
  ,                                       !- Zone Cooling Sizing Factor
  DesignDay,                              !- Cooling Design Air Flow Method
  ,                                       !- Cooling Design Air Flow Rate {m3/s}
  ,                                       !- Cooling Minimum Air Flow per Zone Floor Area {m3/s-m2}
  ,                                       !- Cooling Minimum Air Flow {m3/s}
  ,                                       !- Cooling Minimum Air Flow Fraction
  DesignDay,                              !- Heating Design Air Flow Method
  ,                                       !- Heating Design Air Flow Rate {m3/s}
  ,                                       !- Heating Maximum Air Flow per Zone Floor Area {m3/s-m2}
  ,                                       !- Heating Maximum Air Flow {m3/s}
  ,                                       !- Heating Maximum Air Flow Fraction
  ,                                       !- Design Zone Air Distribution Effectiveness in Cooling Mode
  ,                                       !- Design Zone Air Distribution Effectiveness in Heating Mode
  No,                                     !- Account for Dedicated Outdoor Air System
  NeutralSupplyAir,                       !- Dedicated Outdoor Air System Control Strategy
  autosize,                               !- Dedicated Outdoor Air Low Setpoint Temperature for Design {C}
  autosize;                               !- Dedicated Outdoor Air High Setpoint Temperature for Design {C}

OS:ZoneHVAC:EquipmentList,
  {c96d6ec8-d0b9-4d58-a27e-7d80258c1f48}, !- Handle
  Zone HVAC Equipment List 1,             !- Name
  {3ad28663-fb00-414a-8d28-af9b88a93a9e}; !- Thermal Zone

OS:Space,
  {630dca66-5ef3-4b36-900d-404f31a02b49}, !- Handle
  LargeHotel Cafe B end_a - Story B1,     !- Name
  {08b20c43-ac60-4c35-ac65-398eb2770a41}, !- Space Type Name
  ,                                       !- Default Construction Set Name
  ,                                       !- Default Schedule Set Name
  -0,                                     !- Direction of Relative North {deg}
  -20.3992205733454,                      !- X Origin {m}
  -4.91600956899788,                      !- Y Origin {m}
  -3.048,                                 !- Z Origin {m}
  {350b4c1e-4deb-494c-b9f0-7762bc9570dd}, !- Building Story Name
  {0f27b488-6656-47d8-8061-1c36bdbd549e}; !- Thermal Zone Name

OS:Surface,
  {9d39fba6-514d-465a-83fb-a75ef7a00fb5}, !- Handle
  Surface 7,                              !- Name
  Floor,                                  !- Surface Type
  ,                                       !- Construction Name
  {630dca66-5ef3-4b36-900d-404f31a02b49}, !- Space Name
  Ground,                                 !- Outside Boundary Condition
  ,                                       !- Outside Boundary Condition Object
  NoSun,                                  !- Sun Exposure
  NoWind,                                 !- Wind Exposure
  ,                                       !- View Factor to Ground
  ,                                       !- Number of Vertices
  4.61852778244065e-014, 0, 0,            !- X,Y,Z Vertex 1 {m}
  4.61852778244065e-014, 9.83201913799576, 0, !- X,Y,Z Vertex 2 {m}
  4.57200000000005, 9.83201913799576, 0,  !- X,Y,Z Vertex 3 {m}
  4.57200000000005, 0, 0;                 !- X,Y,Z Vertex 4 {m}

OS:Surface,
  {5d0b0c3c-054b-4a50-825b-7c209a5935c4}, !- Handle
  Surface 8,                              !- Name
  Wall,                                   !- Surface Type
  ,                                       !- Construction Name
  {630dca66-5ef3-4b36-900d-404f31a02b49}, !- Space Name
  Ground,                                 !- Outside Boundary Condition
  ,                                       !- Outside Boundary Condition Object
  NoSun,                                  !- Sun Exposure
  NoWind,                                 !- Wind Exposure
  ,                                       !- View Factor to Ground
  ,                                       !- Number of Vertices
  4.61852778244065e-014, 9.83201913799576, 3.048, !- X,Y,Z Vertex 1 {m}
  4.61852778244065e-014, 9.83201913799576, 0, !- X,Y,Z Vertex 2 {m}
  4.61852778244065e-014, 0, 0,            !- X,Y,Z Vertex 3 {m}
  4.61852778244065e-014, 0, 3.048;        !- X,Y,Z Vertex 4 {m}

OS:Surface,
  {eafcaca5-f657-4d10-9bc1-8b42f26c6520}, !- Handle
  Surface 9,                              !- Name
  Wall,                                   !- Surface Type
  ,                                       !- Construction Name
  {630dca66-5ef3-4b36-900d-404f31a02b49}, !- Space Name
  Surface,                                !- Outside Boundary Condition
  {d248154a-9ecb-48b2-9ab3-a767da4699a6}, !- Outside Boundary Condition Object
  NoSun,                                  !- Sun Exposure
  NoWind,                                 !- Wind Exposure
  ,                                       !- View Factor to Ground
  ,                                       !- Number of Vertices
  4.57200000000005, 9.83201913799576, 3.048, !- X,Y,Z Vertex 1 {m}
  4.57200000000005, 9.83201913799576, 0,  !- X,Y,Z Vertex 2 {m}
  4.61852778244065e-014, 9.83201913799576, 0, !- X,Y,Z Vertex 3 {m}
  4.61852778244065e-014, 9.83201913799576, 3.048; !- X,Y,Z Vertex 4 {m}

OS:Surface,
  {1d55ba5f-b7bb-4816-81af-9713747c9f92}, !- Handle
  Surface 10,                             !- Name
  Wall,                                   !- Surface Type
  ,                                       !- Construction Name
  {630dca66-5ef3-4b36-900d-404f31a02b49}, !- Space Name
  Surface,                                !- Outside Boundary Condition
  {5b7c9841-70ee-4a8d-8ef8-45eee7be01a6}, !- Outside Boundary Condition Object
  NoSun,                                  !- Sun Exposure
  NoWind,                                 !- Wind Exposure
  ,                                       !- View Factor to Ground
  ,                                       !- Number of Vertices
  4.57200000000005, 0, 3.048,             !- X,Y,Z Vertex 1 {m}
  4.57200000000005, 0, 0,                 !- X,Y,Z Vertex 2 {m}
  4.57200000000005, 9.83201913799576, 0,  !- X,Y,Z Vertex 3 {m}
  4.57200000000005, 9.83201913799576, 3.048; !- X,Y,Z Vertex 4 {m}

OS:Surface,
  {af6b0c76-8f07-4b6b-8a08-ebb49fe761e1}, !- Handle
  Surface 11,                             !- Name
  Wall,                                   !- Surface Type
  ,                                       !- Construction Name
  {630dca66-5ef3-4b36-900d-404f31a02b49}, !- Space Name
  Surface,                                !- Outside Boundary Condition
  {3617dba2-acd8-4534-b8d6-ff4ba8a5bea7}, !- Outside Boundary Condition Object
  NoSun,                                  !- Sun Exposure
  NoWind,                                 !- Wind Exposure
  ,                                       !- View Factor to Ground
  ,                                       !- Number of Vertices
  4.61852778244065e-014, 0, 3.048,        !- X,Y,Z Vertex 1 {m}
  4.61852778244065e-014, 0, 0,            !- X,Y,Z Vertex 2 {m}
  4.57200000000005, 0, 0,                 !- X,Y,Z Vertex 3 {m}
  4.57200000000005, 0, 3.048;             !- X,Y,Z Vertex 4 {m}

OS:Surface,