
OS:Version,
  {2449eccc-73de-4b8f-9ebb-533de442c2e6}, !- Handle
  2.7.2;                                  !- Version Identifier

OS:SpaceType,
  {250ad6fd-974b-464a-bd36-6cb8f7dbdb93}, !- Handle
  LargeHotel Banquet,                     !- Name
  ,                                       !- Default Construction Set Name
  ,                                       !- Default Schedule Set Name
  {2d90e24c-8ed2-4012-9c7f-7146ce01fb8d}, !- Group Rendering Name
  ,                                       !- Design Specification Outdoor Air Object Name
  ,                                       !- Standards Template
  LargeHotel,                             !- Standards Building Type
  Banquet;                                !- Standards Space Type

OS:Rendering:Color,
  {2d90e24c-8ed2-4012-9c7f-7146ce01fb8d}, !- Handle
  LargeHotel Banquet,                     !- Name
  230,                                    !- Rendering Red Value
  196,                                    !- Rendering Green Value
  120;                                    !- Rendering Blue Value

OS:SpaceType,
  {7b5c3bb2-03c8-4ae9-a205-9f8b2fefa32a}, !- Handle
  LargeHotel Cafe,                        !- Name
  ,                                       !- Default Construction Set Name
  ,                                       !- Default Schedule Set Name
  {f74979fe-8e47-46ef-b182-80daf6e0ce0c}, !- Group Rendering Name
  ,                                       !- Design Specification Outdoor Air Object Name
  ,                                       !- Standards Template
  LargeHotel,                             !- Standards Building Type
  Cafe;                                   !- Standards Space Type

OS:Rendering:Color,
  {f74979fe-8e47-46ef-b182-80daf6e0ce0c}, !- Handle
  LargeHotel Cafe,                        !- Name
  31,                                     !- Rendering Red Value
  169,                                    !- Rendering Green Value
  34;                                     !- Rendering Blue Value

OS:SpaceType,
  {d9696095-0f98-46b0-81a1-852cc0761dc7}, !- Handle
  LargeHotel Corridor,                    !- Name
  ,                                       !- Default Construction Set Name
  ,                                       !- Default Schedule Set Name
  {9e47aeca-ca00-4407-b966-f518b8adbee9}, !- Group Rendering Name
  ,                                       !- Design Specification Outdoor Air Object Name
  ,                                       !- Standards Template
  LargeHotel,                             !- Standards Building Type
  Corridor;                               !- Standards Space Type

OS:Rendering:Color,
  {9e47aeca-ca00-4407-b966-f518b8adbee9}, !- Handle
  LargeHotel Corridor,                    !- Name
  169,                                    !- Rendering Red Value
  31,                                     !- Rendering Green Value
  31;                                     !- Rendering Blue Value

OS:SpaceType,
  {8df51211-8734-4c9f-b1b2-1b7fac8f1c32}, !- Handle
  LargeHotel GuestRoom,                   !- Name
  ,                                       !- Default Construction Set Name
  ,                                       !- Default Schedule Set Name
  {e2bc823e-be19-4833-bda5-fbcbb36b7937}, !- Group Rendering Name
  ,                                       !- Design Specification Outdoor Air Object Name
  ,                                       !- Standards Template
  LargeHotel,                             !- Standards Building Type
  GuestRoom;                              !- Standards Space Type

OS:Rendering:Color,
  {e2bc823e-be19-4833-bda5-fbcbb36b7937}, !- Handle
  LargeHotel GuestRoom,                   !- Name
  78,                                     !- Rendering Red Value
  167,                                    !- Rendering Green Value
  222;                                    !- Rendering Blue Value

OS:SpaceType,
  {0e18e6d6-4ce8-4678-8f3e-d1e405b244de}, !- Handle
  LargeHotel Kitchen,                     !- Name
  ,                                       !- Default Construction Set Name
  ,                                       !- Default Schedule Set Name
  {ceab9cb9-687e-4ce4-a9e2-5cadae0a1cdc}, !- Group Rendering Name
  ,                                       !- Design Specification Outdoor Air Object Name
  ,                                       !- Standards Template
  LargeHotel,                             !- Standards Building Type
  Kitchen;                                !- Standards Space Type

OS:Rendering:Color,
  {ceab9cb9-687e-4ce4-a9e2-5cadae0a1cdc}, !- Handle
  LargeHotel Kitchen,                     !- Name
  78,                                     !- Rendering Red Value
  222,                                    !- Rendering Green Value
  133;                                    !- Rendering Blue Value

OS:SpaceType,
  {85fb868c-5974-4865-ae26-595f249f2261}, !- Handle
  LargeHotel Laundry,                     !- Name
  ,                                       !- Default Construction Set Name
  ,                                       !- Default Schedule Set Name
  {301ef665-8b3b-4782-ab1a-f3d1d539bbad}, !- Group Rendering Name
  ,                                       !- Design Specification Outdoor Air Object Name
  ,                                       !- Standards Template
  LargeHotel,                             !- Standards Building Type
  Laundry;                                !- Standards Space Type

OS:Rendering:Color,
  {301ef665-8b3b-4782-ab1a-f3d1d539bbad}, !- Handle
  LargeHotel Laundry,                     !- Name
  120,                                    !- Rendering Red Value
  149,                                    !- Rendering Green Value
  230;                                    !- Rendering Blue Value

OS:SpaceType,
  {a7665502-8456-47b0-a9c9-db680c7b547c}, !- Handle
  LargeHotel Lobby,                       !- Name
  ,                                       !- Default Construction Set Name
  ,                                       !- Default Schedule Set Name
  {ce5daca2-78ad-4684-a77a-573b806fbe9c}, !- Group Rendering Name
  ,                                       !- Design Specification Outdoor Air Object Name
  ,                                       !- Standards Template
  LargeHotel,                             !- Standards Building Type
  Lobby;                                  !- Standards Space Type

OS:Rendering:Color,
  {ce5daca2-78ad-4684-a77a-573b806fbe9c}, !- Handle
  LargeHotel Lobby,                       !- Name
  230,                                    !- Rendering Red Value
  157,                                    !- Rendering Green Value
  120;                                    !- Rendering Blue Value

OS:SpaceType,
  {70f69a3d-547f-4de0-89d9-3d27011e5b5e}, !- Handle
  LargeHotel Mechanical,                  !- Name
  ,                                       !- Default Construction Set Name
  ,                                       !- Default Schedule Set Name
  {2284f3f7-172f-4a38-9520-78ad0e56c2fa}, !- Group Rendering Name
  ,                                       !- Design Specification Outdoor Air Object Name
  ,                                       !- Standards Template
  LargeHotel,                             !- Standards Building Type
  Mechanical;                             !- Standards Space Type

OS:Rendering:Color,
  {2284f3f7-172f-4a38-9520-78ad0e56c2fa}, !- Handle
  LargeHotel Mechanical,                  !- Name
  41,                                     !- Rendering Red Value
  31,                                     !- Rendering Green Value
  169;                                    !- Rendering Blue Value

OS:SpaceType,
  {e4266218-b4e8-416a-88b8-694b00f7f814}, !- Handle
  LargeHotel Retail,                      !- Name
  ,                                       !- Default Construction Set Name
  ,                                       !- Default Schedule Set Name
  {63fb35c4-7392-478c-b88f-42a923a4470d}, !- Group Rendering Name
  ,                                       !- Design Specification Outdoor Air Object Name
  ,                                       !- Standards Template
  LargeHotel,                             !- Standards Building Type
  Retail;                                 !- Standards Space Type

OS:Rendering:Color,
  {63fb35c4-7392-478c-b88f-42a923a4470d}, !- Handle
  LargeHotel Retail,                      !- Name
  171,                                    !- Rendering Red Value
  222,                                    !- Rendering Green Value
  78;                                     !- Rendering Blue Value

OS:SpaceType,
  {609f6cd9-d0d3-4ed8-8418-27dd1dd8559d}, !- Handle
  LargeHotel Storage,                     !- Name
  ,                                       !- Default Construction Set Name
  ,                                       !- Default Schedule Set Name
  {dece6a4e-f49c-4ca9-aafd-fbf553d808e2}, !- Group Rendering Name
  ,                                       !- Design Specification Outdoor Air Object Name
  ,                                       !- Standards Template
  LargeHotel,                             !- Standards Building Type
  Storage;                                !- Standards Space Type

OS:Rendering:Color,
  {dece6a4e-f49c-4ca9-aafd-fbf553d808e2}, !- Handle
  LargeHotel Storage,                     !- Name
  120,                                    !- Rendering Red Value
  149,                                    !- Rendering Green Value
  230;                                    !- Rendering Blue Value

OS:SpaceType,
  {a6fef9ac-38f9-43dd-ac51-cd1a9511a655}, !- Handle
  FullServiceRestaurant Dining,           !- Name
  ,                                       !- Default Construction Set Name
  ,                                       !- Default Schedule Set Name
  {1e9c2622-c827-488c-b211-2d03b87478a0}, !- Group Rendering Name
  ,                                       !- Design Specification Outdoor Air Object Name
  ,                                       !- Standards Template
  FullServiceRestaurant,                  !- Standards Building Type
  Dining;                                 !- Standards Space Type

OS:Rendering:Color,
  {1e9c2622-c827-488c-b211-2d03b87478a0}, !- Handle
  FullServiceRestaurant Dining,           !- Name
  31,                                     !- Rendering Red Value
  169,                                    !- Rendering Green Value
  34;                                     !- Rendering Blue Value

OS:SpaceType,
  {3101c5cc-b8d9-486a-ab60-a808eaacc024}, !- Handle
  FullServiceRestaurant Kitchen,          !- Name
  ,                                       !- Default Construction Set Name
  ,                                       !- Default Schedule Set Name
  {985faac7-b6ab-462c-a76f-90e84ed533ca}, !- Group Rendering Name
  ,                                       !- Design Specification Outdoor Air Object Name
  ,                                       !- Standards Template
  FullServiceRestaurant,                  !- Standards Building Type
  Kitchen;                                !- Standards Space Type

OS:Rendering:Color,
  {985faac7-b6ab-462c-a76f-90e84ed533ca}, !- Handle
  FullServiceRestaurant Kitchen,          !- Name
  78,                                     !- Rendering Red Value
  222,                                    !- Rendering Green Value
  133;                                    !- Rendering Blue Value

OS:Building,
  {2161c24a-c122-431a-bdb1-773dfb33f966}, !- Handle
  90.1-2004|LargeHotel|FullServiceRestaurant, !- Name
  ,                                       !- Building Sector Type
  ,                                       !- North Axis {deg}
  ,                                       !- Nominal Floor to Floor Height {m}
  ,                                       !- Space Type Name
  ,                                       !- Default Construction Set Name
  ;                                       !- Default Schedule Set Name

OS:Site,
  {a99896e6-ad8b-47af-ab36-307f4a8f7067}, !- Handle
  Site 1,                                 !- Name
  ,                                       !- Latitude {deg}
  ,                                       !- Longitude {deg}
  ,                                       !- Time Zone {hr}
  ,                                       !- Elevation {m}
  ;                                       !- Terrain

OS:BuildingStory,
  {4325204f-d13d-48f9-b49d-9b3d620e1fd0}, !- Handle
  Story Ground,                           !- Name
  0,                                      !- Nominal Z Coordinate {m}
  3.048,                                  !- Nominal Floor to Floor Height {m}
  ,                                       !- Default Construction Set Name
  ,                                       !- Default Schedule Set Name
  ;                                       !- Group Rendering Name

OS:Space,
  {5971c1cb-c292-4125-b944-a5c71cc23f8e}, !- Handle
  FullServiceRestaurant Kitchen A end_a - Story Ground, !- Name
  {3101c5cc-b8d9-486a-ab60-a808eaacc024}, !- Space Type Name
  ,                                       !- Default Construction Set Name
  ,                                       !- Default Schedule Set Name
  -0,                                     !- Direction of Relative North {deg}
  -24.9838407775906,                      !- X Origin {m}
  -11.6203910593445,                      !- Y Origin {m}
  0,                                      !- Z Origin {m}
  {4325204f-d13d-48f9-b49d-9b3d620e1fd0}, !- Building Story Name
  {abf2006f-3db3-416c-b7a2-68c3906c1bc4}; !- Thermal Zone Name

OS:Surface,
  {bc2aa534-160f-4266-aafc-7c5a0da3e531}, !- Handle
  Surface 1,                              !- Name
  Floor,                                  !- Surface Type
  ,                                       !- Construction Name
  {5971c1cb-c292-4125-b944-a5c71cc23f8e}, !- Space Name
  Ground,                                 !- Outside Boundary Condition
  ,                                       !- Outside Boundary Condition Object
  NoSun,                                  !- Sun Exposure
  NoWind,                                 !- Wind Exposure
  ,                                       !- View Factor to Ground
  ,                                       !- Number of Vertices
  2.1316282072803e-014, -2.48689957516035e-014, 0, !- X,Y,Z Vertex 1 {m}
  2.1316282072803e-014, 4.572, 0,         !- X,Y,Z Vertex 2 {m}
  4.57200000000002, 4.572, 0,             !- X,Y,Z Vertex 3 {m}
  4.57200000000002, -2.48689957516035e-014, 0; !- X,Y,Z Vertex 4 {m}

OS:Surface,
  {4fc5401c-66d2-40bc-b30f-3f855fa81b43}, !- Handle
  Surface 2,                              !- Name
  Wall,                                   !- Surface Type
  ,                                       !- Construction Name
  {5971c1cb-c292-4125-b944-a5c71cc23f8e}, !- Space Name
  Adiabatic,                              !- Outside Boundary Condition
  ,                                       !- Outside Boundary Condition Object
  NoSun,                                  !- Sun Exposure
  NoWind,                                 !- Wind Exposure
  ,                                       !- View Factor to Ground
  ,                                       !- Number of Vertices
  2.1316282072803e-014, 4.572, 3.048,     !- X,Y,Z Vertex 1 {m}
  2.1316282072803e-014, 4.572, 0,         !- X,Y,Z Vertex 2 {m}
  2.1316282072803e-014, -2.48689957516035e-014, 0, !- X,Y,Z Vertex 3 {m}
  2.1316282072803e-014, -2.48689957516035e-014, 3.048; !- X,Y,Z Vertex 4 {m}

OS:Surface,
  {ec37a76b-7e27-4b46-af2e-991547ccb9d6}, !- Handle
  Surface 3,                              !- Name
  Wall,                                   !- Surface Type
  ,                                       !- Construction Name
  {5971c1cb-c292-4125-b944-a5c71cc23f8e}, !- Space Name
  Surface,                                !- Outside Boundary Condition
  {3b8e1bfd-91a4-4445-84ee-3f42f2cc3882}, !- Outside Boundary Condition Object
  NoSun,                                  !- Sun Exposure
  NoWind,                                 !- Wind Exposure
  ,                                       !- View Factor to Ground
  ,                                       !- Number of Vertices
  4.57200000000002, 4.572, 3.048,         !- X,Y,Z Vertex 1 {m}
  4.57200000000002, 4.572, 0,             !- X,Y,Z Vertex 2 {m}
  2.1316282072803e-014, 4.572, 0,         !- X,Y,Z Vertex 3 {m}
  2.1316282072803e-014, 4.572, 3.048;     !- X,Y,Z Vertex 4 {m}

OS:Surface,
  {6919849f-9119-4699-afec-e1ec32122ff3}, !- Handle
  Surface 4,                              !- Name
  Wall,                                   !- Surface Type
  ,                                       !- Construction Name
  {5971c1cb-c292-4125-b944-a5c71cc23f8e}, !- Space Name
  Surface,                                !- Outside Boundary Condition
  {e8572533-a42d-40e6-87e5-0bf1f8df852d}, !- Outside Boundary Condition Object
  NoSun,                                  !- Sun Exposure
  NoWind,                                 !- Wind Exposure
  ,                                       !- View Factor to Ground
  ,                                       !- Number of Vertices
  4.57200000000002, -2.48689957516035e-014, 3.048, !- X,Y,Z Vertex 1 {m}
  4.57200000000002, -2.48689957516035e-014, 0, !- X,Y,Z Vertex 2 {m}
  4.57200000000002, 4.572, 0,             !- X,Y,Z Vertex 3 {m}
  4.57200000000002, 4.572, 3.048;         !- X,Y,Z Vertex 4 {m}

OS:Surface,
  {8345149f-1325-4d1d-9da2-cfc279942fbd}, !- Handle
  Surface 5,                              !- Name
  Wall,                                   !- Surface Type
  ,                                       !- Construction Name
  {5971c1cb-c292-4125-b944-a5c71cc23f8e}, !- Space Name
  Outdoors,                               !- Outside Boundary Condition
  ,                                       !- Outside Boundary Condition Object
  SunExposed,                             !- Sun Exposure
  WindExposed,                            !- Wind Exposure
  ,                                       !- View Factor to Ground
  ,                                       !- Number of Vertices
  2.1316282072803e-014, -2.48689957516035e-014, 3.048, !- X,Y,Z Vertex 1 {m}
  2.1316282072803e-014, -2.48689957516035e-014, 0, !- X,Y,Z Vertex 2 {m}
  4.57200000000002, -2.48689957516035e-014, 0, !- X,Y,Z Vertex 3 {m}
  4.57200000000002, -2.48689957516035e-014, 3.048; !- X,Y,Z Vertex 4 {m}

OS:Surface,
  {36d68a9f-f047-4791-836c-1c103395c715}, !- Handle
  Surface 6,                              !- Name
  RoofCeiling,                            !- Surface Type
  ,                                       !- Construction Name
  {5971c1cb-c292-4125-b944-a5c71cc23f8e}, !- Space Name
  Adiabatic,                              !- Outside Boundary Condition
  ,                                       !- Outside Boundary Condition Object
  NoSun,                                  !- Sun Exposure
  NoWind,                                 !- Wind Exposure
  ,                                       !- View Factor to Ground
  ,                                       !- Number of Vertices
  4.57200000000002, -2.48689957516035e-014, 3.048, !- X,Y,Z Vertex 1 {m}
  4.57200000000002, 4.572, 3.048,         !- X,Y,Z Vertex 2 {m}
  2.1316282072803e-014, 4.572, 3.048,     !- X,Y,Z Vertex 3 {m}
  2.1316282072803e-014, -2.48689957516035e-014, 3.048; !- X,Y,Z Vertex 4 {m}

OS:ThermalZone,
  {abf2006f-3db3-416c-b7a2-68c3906c1bc4}, !- Handle
  Zone FullServiceRestaurant Kitchen A end_a - Story Ground, !- Name
  1,                                      !- Multiplier
  ,                                       !- Ceiling Height {m}
  ,                                       !- Volume {m3}
  ,                                       !- Floor Area {m2}
  ,                                       !- Zone Inside Convection Algorithm
  ,                                       !- Zone Outside Convection Algorithm
  ,                                       !- Zone Conditioning Equipment List Name
  {7f53413e-a8ee-4e1a-a9a8-89e8edc8c169}, !- Zone Air Inlet Port List
  {8380f5cf-6d7e-460c-8c61-2aebbb57d5c3}, !- Zone Air Exhaust Port List
  {f01c23c4-f74b-4cd1-85f6-3f145a2f25b3}, !- Zone Air Node Name
  {5ef059a2-5d5b-449f-8115-bc86dcb73e92}, !- Zone Return Air Port List
  ,                                       !- Primary Daylighting Control Name
  ,                                       !- Fraction of Zone Controlled by Primary Daylighting Control
  ,                                       !- Secondary Daylighting Control Name
  ,                                       !- Fraction of Zone Controlled by Secondary Daylighting Control
  ,                                       !- Illuminance Map Name
  ,                                       !- Group Rendering Name
  ,                                       !- Thermostat Name
  No;                                     !- Use Ideal Air Loads

OS:Node,
  {efa2a61d-f087-4719-b072-255aab1c660e}, !- Handle
  Node 1,                                 !- Name
  {f01c23c4-f74b-4cd1-85f6-3f145a2f25b3}, !- Inlet Port
  ;                                       !- Outlet Port

OS:Connection,
  {f01c23c4-f74b-4cd1-85f6-3f145a2f25b3}, !- Handle
  {e90cb1b2-0f37-4779-a756-31138328dca9}, !- Name
  {abf2006f-3db3-416c-b7a2-68c3906c1bc4}, !- Source Object
  11,                                     !- Outlet Port
  {efa2a61d-f087-4719-b072-255aab1c660e}, !- Target Object
  2;                                      !- Inlet Port

OS:PortList,
  {7f53413e-a8ee-4e1a-a9a8-89e8edc8c169}, !- Handle
  {70809c26-16d6-4678-9a98-12331c09fa06}, !- Name
  {abf2006f-3db3-416c-b7a2-68c3906c1bc4}; !- HVAC Component

OS:PortList,
  {8380f5cf-6d7e-460c-8c61-2aebbb57d5c3}, !- Handle
  {0a84c244-2ee5-4df6-b9c8-e0799331acc6}, !- Name
  {abf2006f-3db3-416c-b7a2-68c3906c1bc4}; !- HVAC Component

OS:PortList,
  {5ef059a2-5d5b-449f-8115-bc86dcb73e92}, !- Handle
  {acdf1d22-aa31-4f07-b39b-d9d70dc053ea}, !- Name
  {abf2006f-3db3-416c-b7a2-68c3906c1bc4}; !- HVAC Component

OS:Sizing:Zone,
  {844e3e87-f5c1-450e-8a04-e9c2bf0d48e7}, !- Handle
  {abf2006f-3db3-416c-b7a2-68c3906c1bc4}, !- Zone or ZoneList Name
  SupplyAirTemperature,                   !- Zone Cooling Design Supply Air Temperature Input Method
  14,                                     !- Zone Cooling Design Supply Air Temperature {C}
  11.11,                                  !- Zone Cooling Design Supply Air Temperature Difference {deltaC}
  SupplyAirTemperature,                   !- Zone Heating Design Supply Air Temperature Input Method
  40,                                     !- Zone Heating Design Supply Air Temperature {C}
  11.11,                                  !- Zone Heating Design Supply Air Temperature Difference {deltaC}
  0.0085,                                 !- Zone Cooling Design Supply Air Humidity Ratio {kg-H2O/kg-air}
  0.008,                                  !- Zone Heating Design Supply Air Humidity Ratio {kg-H2O/kg-air}
  ,                                       !- Zone Heating Sizing Factor
  ,                                       !- Zone Cooling Sizing Factor
  DesignDay,                              !- Cooling Design Air Flow Method
  ,                                       !- Cooling Design Air Flow Rate {m3/s}
  ,                                       !- Cooling Minimum Air Flow per Zone Floor Area {m3/s-m2}
  ,                                       !- Cooling Minimum Air Flow {m3/s}
  ,                                       !- Cooling Minimum Air Flow Fraction
  DesignDay,                              !- Heating Design Air Flow Method
  ,                                       !- Heating Design Air Flow Rate {m3/s}
  ,                                       !- Heating Maximum Air Flow per Zone Floor Area {m3/s-m2}
  ,                                       !- Heating Maximum Air Flow {m3/s}
  ,                                       !- Heating Maximum Air Flow Fraction
  ,                                       !- Design Zone Air Distribution Effectiveness in Cooling Mode
  ,                                       !- Design Zone Air Distribution Effectiveness in Heating Mode
  No,                                     !- Account for Dedicated Outdoor Air System
  NeutralSupplyAir,                       !- Dedicated Outdoor Air System Control Strategy
  autosize,                               !- Dedicated Outdoor Air Low Setpoint Temperature for Design {C}
  autosize;                               !- Dedicated Outdoor Air High Setpoint Temperature for Design {C}

OS:ZoneHVAC:EquipmentList,
  {babc78b3-41d6-42e1-a7b0-6c0f58fd403a}, !- Handle
  Zone HVAC Equipment List 1,             !- Name
  {abf2006f-3db3-416c-b7a2-68c3906c1bc4}; !- Thermal Zone

OS:Space,
  {ab8aae47-1a25-42a6-b415-05449e2ff79b}, !- Handle
  FullServiceRestaurant Kitchen B end_a - Story Ground, !- Name
  {3101c5cc-b8d9-486a-ab60-a808eaacc024}, !- Space Type Name
  ,                                       !- Default Construction Set Name
  ,                                       !- Default Schedule Set Name
  -0,                                     !- Direction of Relative North {deg}
  -24.9838407775906,                      !- X Origin {m}
  -7.04839105934448,                      !- Y Origin {m}
  0,                                      !- Z Origin {m}
  {4325204f-d13d-48f9-b49d-9b3d620e1fd0}, !- Building Story Name
  {fa89ca19-eff0-4087-b79a-ccd7f6c72012}; !- Thermal Zone Name

OS:Surface,
  {f6653bce-ef65-458f-a437-26e8ab065415}, !- Handle
  Surface 7,                              !- Name
  Floor,                                  !- Surface Type
  ,                                       !- Construction Name
  {ab8aae47-1a25-42a6-b415-05449e2ff79b}, !- Space Name
  Ground,                                 !- Outside Boundary Condition
  ,                                       !- Outside Boundary Condition Object
  NoSun,                                  !- Sun Exposure
  NoWind,                                 !- Wind Exposure
  ,                                       !- View Factor to Ground
  ,                                       !- Number of Vertices
  2.1316282072803e-014, -4.44089209850063e-015, 0, !- X,Y,Z Vertex 1 {m}
  2.1316282072803e-014, 14.096782118689, 0, !- X,Y,Z Vertex 2 {m}
  4.57200000000002, 14.096782118689, 0,   !- X,Y,Z Vertex 3 {m}
  4.57200000000002, -4.44089209850063e-015, 0; !- X,Y,Z Vertex 4 {m}

OS:Surface,
  {617c142b-5c4b-47d5-898a-5a915108602f}, !- Handle
  Surface 8,                              !- Name
  Wall,                                   !- Surface Type
  ,                                       !- Construction Name
  {ab8aae47-1a25-42a6-b415-05449e2ff79b}, !- Space Name
  Adiabatic,                              !- Outside Boundary Condition
  ,                                       !- Outside Boundary Condition Object
  NoSun,                                  !- Sun Exposure
  NoWind,                                 !- Wind Exposure
  ,                                       !- View Factor to Ground
  ,                                       !- Number of Vertices
  2.1316282072803e-014, 14.096782118689, 3.048, !- X,Y,Z Vertex 1 {m}
  2.1316282072803e-014, 14.096782118689, 0, !- X,Y,Z Vertex 2 {m}
  2.1316282072803e-014, -4.44089209850063e-015, 0, !- X,Y,Z Vertex 3 {m}
  2.1316282072803e-014, -4.44089209850063e-015, 3.048; !- X,Y,Z Vertex 4 {m}

OS:Surface,
  {f82ca57e-0326-4a9f-93f5-06581877fbad}, !- Handle
  Surface 9,                              !- Name
  Wall,                                   !- Surface Type
  ,                                       !- Construction Name
  {ab8aae47-1a25-42a6-b415-05449e2ff79b}, !- Space Name
  Surface,                                !- Outside Boundary Condition
  {a9abff3e-b660-4813-a345-221c96cd4687}, !- Outside Boundary Condition Object
  NoSun,                                  !- Sun Exposure
  NoWind,                                 !- Wind Exposure
  ,                                       !- View Factor to Ground
  ,                                       !- Number of Vertices
  4.57200000000002, 14.096782118689, 3.048, !- X,Y,Z Vertex 1 {m}
  4.57200000000002, 14.096782118689, 0,   !- X,Y,Z Vertex 2 {m}
  2.1316282072803e-014, 14.096782118689, 0, !- X,Y,Z Vertex 3 {m}
  2.1316282072803e-014, 14.096782118689, 3.048; !- X,Y,Z Vertex 4 {m}

OS:Surface,
  {cf3d6441-1641-48c8-8c8a-b3a358d392e0}, !- Handle
  Surface 10,                             !- Name
  Wall,                                   !- Surface Type
  ,                                       !- Construction Name
  {ab8aae47-1a25-42a6-b415-05449e2ff79b}, !- Space Name
  Surface,                                !- Outside Boundary Condition
  {75d102b5-7987-42dc-a68b-67864ed7a88b}, !- Outside Boundary Condition Object
  NoSun,                                  !- Sun Exposure
  NoWind,                                 !- Wind Exposure
  ,                                       !- View Factor to Ground
  ,                                       !- Number of Vertices
  4.57200000000002, -4.44089209850063e-015, 3.048, !- X,Y,Z Vertex 1 {m}
  4.57200000000002, -4.44089209850063e-015, 0, !- X,Y,Z Vertex 2 {m}
  4.57200000000002, 14.096782118689, 0,   !- X,Y,Z Vertex 3 {m}
  4.57200000000002, 14.096782118689, 3.048; !- X,Y,Z Vertex 4 {m}

OS:Surface,
  {3b8e1bfd-91a4-4445-84ee-3f42f2cc3882}, !- Handle
  Surface 11,                             !- Name
  Wall,                                   !- Surface Type
  ,                                       !- Construction Name
  {ab8aae47-1a25-42a6-b415-05449e2ff79b}, !- Space Name
  Surface,                                !- Outside Boundary Condition
  {ec37a76b-7e27-4b46-af2e-991547ccb9d6}, !- Outside Boundary Condition Object
  NoSun,                                  !- Sun Exposure
  NoWind,                                 !- Wind Exposure
  ,                                       !- View Factor to Ground
  ,                                       !- Number of Vertices
  2.1316282072803e-014, -4.44089209850063e-015, 3.048, !- X,Y,Z Vertex 1 {m}