
OS:Version,
  {dbfdeefe-d6cd-42e3-832a-def06adcd07e}, !- Handle
  2.7.2;                                  !- Version Identifier

OS:SpaceType,
  {309af629-cb95-4aad-b059-000e97dc19bb}, !- Handle
  LargeHotel Banquet,                     !- Name
  ,                                       !- Default Construction Set Name
  ,                                       !- Default Schedule Set Name
  {48cbaade-9e1e-45bf-bca0-f3300a36fa51}, !- Group Rendering Name
  ,                                       !- Design Specification Outdoor Air Object Name
  ,                                       !- Standards Template
  LargeHotel,                             !- Standards Building Type
  Banquet;                                !- Standards Space Type

OS:Rendering:Color,
  {48cbaade-9e1e-45bf-bca0-f3300a36fa51}, !- Handle
  LargeHotel Banquet,                     !- Name
  230,                                    !- Rendering Red Value
  196,                                    !- Rendering Green Value
  120;                                    !- Rendering Blue Value

OS:SpaceType,
  {c00d645d-a507-4980-b167-2cff2ed3c6be}, !- Handle
  LargeHotel Cafe,                        !- Name
  ,                                       !- Default Construction Set Name
  ,                                       !- Default Schedule Set Name
  {5098f57e-0973-4608-ab78-0874690e3daa}, !- Group Rendering Name
  ,                                       !- Design Specification Outdoor Air Object Name
  ,                                       !- Standards Template
  LargeHotel,                             !- Standards Building Type
  Cafe;                                   !- Standards Space Type

OS:Rendering:Color,
  {5098f57e-0973-4608-ab78-0874690e3daa}, !- Handle
  LargeHotel Cafe,                        !- Name
  31,                                     !- Rendering Red Value
  169,                                    !- Rendering Green Value
  34;                                     !- Rendering Blue Value

OS:SpaceType,
  {44a49a75-5d95-4cdd-b687-b1a87050a4e9}, !- Handle
  LargeHotel Corridor,                    !- Name
  ,                                       !- Default Construction Set Name
  ,                                       !- Default Schedule Set Name
  {6cfc1364-c685-4034-86e8-2e62834187e7}, !- Group Rendering Name
  ,                                       !- Design Specification Outdoor Air Object Name
  ,                                       !- Standards Template
  LargeHotel,                             !- Standards Building Type
  Corridor;                               !- Standards Space Type

OS:Rendering:Color,
  {6cfc1364-c685-4034-86e8-2e62834187e7}, !- Handle
  LargeHotel Corridor,                    !- Name
  169,                                    !- Rendering Red Value
  31,                                     !- Rendering Green Value
  31;                                     !- Rendering Blue Value

OS:SpaceType,
  {93d4135a-f296-44f8-be49-e6d5a5c46a27}, !- Handle
  LargeHotel GuestRoom,                   !- Name
  ,                                       !- Default Construction Set Name
  ,                                       !- Default Schedule Set Name
  {89d6ffa3-4660-4e04-8667-bd0d6960a4d4}, !- Group Rendering Name
  ,                                       !- Design Specification Outdoor Air Object Name
  ,                                       !- Standards Template
  LargeHotel,                             !- Standards Building Type
  GuestRoom;                              !- Standards Space Type

OS:Rendering:Color,
  {89d6ffa3-4660-4e04-8667-bd0d6960a4d4}, !- Handle
  LargeHotel GuestRoom,                   !- Name
  78,                                     !- Rendering Red Value
  167,                                    !- Rendering Green Value
  222;                                    !- Rendering Blue Value

OS:SpaceType,
  {8271b934-72c6-4090-b957-3cf56e14d205}, !- Handle
  LargeHotel Kitchen,                     !- Name
  ,                                       !- Default Construction Set Name
  ,                                       !- Default Schedule Set Name
  {bd49a287-7c64-414b-8e9e-587adecd5de3}, !- Group Rendering Name
  ,                                       !- Design Specification Outdoor Air Object Name
  ,                                       !- Standards Template
  LargeHotel,                             !- Standards Building Type
  Kitchen;                                !- Standards Space Type

OS:Rendering:Color,
  {bd49a287-7c64-414b-8e9e-587adecd5de3}, !- Handle
  LargeHotel Kitchen,                     !- Name
  78,                                     !- Rendering Red Value
  222,                                    !- Rendering Green Value
  133;                                    !- Rendering Blue Value

OS:SpaceType,
  {c2e3e182-82bf-4cbe-99a1-f675b5134ff4}, !- Handle
  LargeHotel Laundry,                     !- Name
  ,                                       !- Default Construction Set Name
  ,                                       !- Default Schedule Set Name
  {c2bab3c0-ea5e-4cae-9c08-8fe991da65cd}, !- Group Rendering Name
  ,                                       !- Design Specification Outdoor Air Object Name
  ,                                       !- Standards Template
  LargeHotel,                             !- Standards Building Type
  Laundry;                                !- Standards Space Type

OS:Rendering:Color,
  {c2bab3c0-ea5e-4cae-9c08-8fe991da65cd}, !- Handle
  LargeHotel Laundry,                     !- Name
  120,                                    !- Rendering Red Value
  149,                                    !- Rendering Green Value
  230;                                    !- Rendering Blue Value

OS:SpaceType,
  {4a77d29b-c3a0-446b-b959-0a3c98e8d9eb}, !- Handle
  LargeHotel Lobby,                       !- Name
  ,                                       !- Default Construction Set Name
  ,                                       !- Default Schedule Set Name
  {3efb7845-2d6a-4820-a1eb-32c0499a3e96}, !- Group Rendering Name
  ,                                       !- Design Specification Outdoor Air Object Name
  ,                                       !- Standards Template
  LargeHotel,                             !- Standards Building Type
  Lobby;                                  !- Standards Space Type

OS:Rendering:Color,
  {3efb7845-2d6a-4820-a1eb-32c0499a3e96}, !- Handle
  LargeHotel Lobby,                       !- Name
  230,                                    !- Rendering Red Value
  157,                                    !- Rendering Green Value
  120;                                    !- Rendering Blue Value

OS:SpaceType,
  {1596ab1f-8326-4607-a896-af329fb9a6c1}, !- Handle
  LargeHotel Mechanical,                  !- Name
  ,                                       !- Default Construction Set Name
  ,                                       !- Default Schedule Set Name
  {7f79c0a0-2719-4d5f-bb4d-807f2e8af004}, !- Group Rendering Name
  ,                                       !- Design Specification Outdoor Air Object Name
  ,                                       !- Standards Template
  LargeHotel,                             !- Standards Building Type
  Mechanical;                             !- Standards Space Type

OS:Rendering:Color,
  {7f79c0a0-2719-4d5f-bb4d-807f2e8af004}, !- Handle
  LargeHotel Mechanical,                  !- Name
  41,                                     !- Rendering Red Value
  31,                                     !- Rendering Green Value
  169;                                    !- Rendering Blue Value

OS:SpaceType,
  {841c7720-279a-4a55-82b6-005391e536b7}, !- Handle
  LargeHotel Retail,                      !- Name
  ,                                       !- Default Construction Set Name
  ,                                       !- Default Schedule Set Name
  {299cd870-07e4-4cc8-bb1d-9b5fc1e6f2ed}, !- Group Rendering Name
  ,                                       !- Design Specification Outdoor Air Object Name
  ,                                       !- Standards Template
  LargeHotel,                             !- Standards Building Type
  Retail;                                 !- Standards Space Type

OS:Rendering:Color,
  {299cd870-07e4-4cc8-bb1d-9b5fc1e6f2ed}, !- Handle
  LargeHotel Retail,                      !- Name
  171,                                    !- Rendering Red Value
  222,                                    !- Rendering Green Value
  78;                                     !- Rendering Blue Value

OS:SpaceType,
  {9d95d88e-1ca1-4c0d-98c6-fa3223400dd5}, !- Handle
  LargeHotel Storage,                     !- Name
  ,                                       !- Default Construction Set Name
  ,                                       !- Default Schedule Set Name
  {ce8aa5eb-bf85-4092-b070-f54360c9eace}, !- Group Rendering Name
  ,                                       !- Design Specification Outdoor Air Object Name
  ,                                       !- Standards Template
  LargeHotel,                             !- Standards Building Type
  Storage;                                !- Standards Space Type

OS:Rendering:Color,
  {ce8aa5eb-bf85-4092-b070-f54360c9eace}, !- Handle
  LargeHotel Storage,                     !- Name
  120,                                    !- Rendering Red Value
  149,                                    !- Rendering Green Value
  230;                                    !- Rendering Blue Value

OS:SpaceType,
  {d4aeaeeb-b495-4e94-b0c3-ea11a4f25ef0}, !- Handle
  FullServiceRestaurant Dining,           !- Name
  ,                                       !- Default Construction Set Name
  ,                                       !- Default Schedule Set Name
  {ff6f9b4b-caeb-425e-a008-428d95f14328}, !- Group Rendering Name
  ,                                       !- Design Specification Outdoor Air Object Name
  ,                                       !- Standards Template
  FullServiceRestaurant,                  !- Standards Building Type
  Dining;                                 !- Standards Space Type

OS:Rendering:Color,
  {ff6f9b4b-caeb-425e-a008-428d95f14328}, !- Handle
  FullServiceRestaurant Dining,           !- Name
  31,                                     !- Rendering Red Value
  169,                                    !- Rendering Green Value
  34;                                     !- Rendering Blue Value

OS:SpaceType,
  {94fc305f-67a8-4dc2-b7db-d6f37418cd72}, !- Handle
  FullServiceRestaurant Kitchen,          !- Name
  ,                                       !- Default Construction Set Name
  ,                                       !- Default Schedule Set Name
  {f8c42e0f-3208-476b-86f3-1fe5c9666f05}, !- Group Rendering Name
  ,                                       !- Design Specification Outdoor Air Object Name
  ,                                       !- Standards Template
  FullServiceRestaurant,                  !- Standards Building Type
  Kitchen;                                !- Standards Space Type

OS:Rendering:Color,
  {f8c42e0f-3208-476b-86f3-1fe5c9666f05}, !- Handle
  FullServiceRestaurant Kitchen,          !- Name
  78,                                     !- Rendering Red Value
  222,                                    !- Rendering Green Value
  133;                                    !- Rendering Blue Value

OS:Building,
  {7c70731e-f772-4eb3-9910-9dd03a5f7fe4}, !- Handle
  90.1-2004|LargeHotel|FullServiceRestaurant, !- Name
  ,                                       !- Building Sector Type
  ,                                       !- North Axis {deg}
  ,                                       !- Nominal Floor to Floor Height {m}
  ,                                       !- Space Type Name
  ,                                       !- Default Construction Set Name
  ;                                       !- Default Schedule Set Name

OS:Site,
  {cc98165e-ff81-483a-b33f-dfae1a52ade3}, !- Handle
  Site 1,                                 !- Name
  ,                                       !- Latitude {deg}
  ,                                       !- Longitude {deg}
  ,                                       !- Time Zone {hr}
  ,                                       !- Elevation {m}
  ;                                       !- Terrain

OS:BuildingStory,
  {cbcf2490-60cc-4189-a65c-b94299f7988e}, !- Handle
  Story Ground,                           !- Name
  0,                                      !- Nominal Z Coordinate {m}
  3.048,                                  !- Nominal Floor to Floor Height {m}
  ,                                       !- Default Construction Set Name
  ,                                       !- Default Schedule Set Name
  ;                                       !- Group Rendering Name

OS:Space,
  {6f1f6d2f-18fe-4f8d-8d89-0ae77e90b71b}, !- Handle
  FullServiceRestaurant Kitchen A end_a - Story Ground, !- Name
  {94fc305f-67a8-4dc2-b7db-d6f37418cd72}, !- Space Type Name
  ,                                       !- Default Construction Set Name
  ,                                       !- Default Schedule Set Name
  -0,                                     !- Direction of Relative North {deg}
  -24.9838407775906,                      !- X Origin {m}
  -11.6203910593445,                      !- Y Origin {m}
  0,                                      !- Z Origin {m}
  {cbcf2490-60cc-4189-a65c-b94299f7988e}, !- Building Story Name
  {c45f542a-6a32-4962-af88-270c8cef7493}; !- Thermal Zone Name

OS:Surface,
  {8467ed9e-894b-420e-9757-b11e415ee1bb}, !- Handle
  Surface 1,                              !- Name
  Floor,                                  !- Surface Type
  ,                                       !- Construction Name
  {6f1f6d2f-18fe-4f8d-8d89-0ae77e90b71b}, !- Space Name
  Ground,                                 !- Outside Boundary Condition
  ,                                       !- Outside Boundary Condition Object
  NoSun,                                  !- Sun Exposure
  NoWind,                                 !- Wind Exposure
  ,                                       !- View Factor to Ground
  ,                                       !- Number of Vertices
  2.1316282072803e-014, -2.48689957516035e-014, 0, !- X,Y,Z Vertex 1 {m}
  2.1316282072803e-014, 4.572, 0,         !- X,Y,Z Vertex 2 {m}
  4.57200000000002, 4.572, 0,             !- X,Y,Z Vertex 3 {m}
  4.57200000000002, -2.48689957516035e-014, 0; !- X,Y,Z Vertex 4 {m}

OS:Surface,
  {0421f6e2-ac25-4f52-821c-23b316f3757d}, !- Handle
  Surface 2,                              !- Name
  Wall,                                   !- Surface Type
  ,                                       !- Construction Name
  {6f1f6d2f-18fe-4f8d-8d89-0ae77e90b71b}, !- Space Name
  Adiabatic,                              !- Outside Boundary Condition
  ,                                       !- Outside Boundary Condition Object
  NoSun,                                  !- Sun Exposure
  NoWind,                                 !- Wind Exposure
  ,                                       !- View Factor to Ground
  ,                                       !- Number of Vertices
  2.1316282072803e-014, 4.572, 3.048,     !- X,Y,Z Vertex 1 {m}
  2.1316282072803e-014, 4.572, 0,         !- X,Y,Z Vertex 2 {m}
  2.1316282072803e-014, -2.48689957516035e-014, 0, !- X,Y,Z Vertex 3 {m}
  2.1316282072803e-014, -2.48689957516035e-014, 3.048; !- X,Y,Z Vertex 4 {m}

OS:Surface,
  {a39999bc-6ea2-43f8-b73b-6ed4ef16537c}, !- Handle
  Surface 3,                              !- Name
  Wall,                                   !- Surface Type
  ,                                       !- Construction Name
  {6f1f6d2f-18fe-4f8d-8d89-0ae77e90b71b}, !- Space Name
  Surface,                                !- Outside Boundary Condition
  {b10f7530-357a-46b7-af91-299359c77dea}, !- Outside Boundary Condition Object
  NoSun,                                  !- Sun Exposure
  NoWind,                                 !- Wind Exposure
  ,                                       !- View Factor to Ground
  ,                                       !- Number of Vertices
  4.57200000000002, 4.572, 3.048,         !- X,Y,Z Vertex 1 {m}
  4.57200000000002, 4.572, 0,             !- X,Y,Z Vertex 2 {m}
  2.1316282072803e-014, 4.572, 0,         !- X,Y,Z Vertex 3 {m}
  2.1316282072803e-014, 4.572, 3.048;     !- X,Y,Z Vertex 4 {m}

OS:Surface,
  {f924102b-eeed-4182-9fa5-83d80f2d3061}, !- Handle
  Surface 4,                              !- Name
  Wall,                                   !- Surface Type
  ,                                       !- Construction Name
  {6f1f6d2f-18fe-4f8d-8d89-0ae77e90b71b}, !- Space Name
  Surface,                                !- Outside Boundary Condition
  {e64a3e4b-3b69-48dc-9f53-e786ff6b2834}, !- Outside Boundary Condition Object
  NoSun,                                  !- Sun Exposure
  NoWind,                                 !- Wind Exposure
  ,                                       !- View Factor to Ground
  ,                                       !- Number of Vertices
  4.57200000000002, -2.48689957516035e-014, 3.048, !- X,Y,Z Vertex 1 {m}
  4.57200000000002, -2.48689957516035e-014, 0, !- X,Y,Z Vertex 2 {m}
  4.57200000000002, 4.572, 0,             !- X,Y,Z Vertex 3 {m}
  4.57200000000002, 4.572, 3.048;         !- X,Y,Z Vertex 4 {m}

OS:Surface,
  {84d7e5e5-926e-4247-b396-27a2077b42dd}, !- Handle
  Surface 5,                              !- Name
  Wall,                                   !- Surface Type
  ,                                       !- Construction Name
  {6f1f6d2f-18fe-4f8d-8d89-0ae77e90b71b}, !- Space Name
  Outdoors,                               !- Outside Boundary Condition
  ,                                       !- Outside Boundary Condition Object
  SunExposed,                             !- Sun Exposure
  WindExposed,                            !- Wind Exposure
  ,                                       !- View Factor to Ground
  ,                                       !- Number of Vertices
  2.1316282072803e-014, -2.48689957516035e-014, 3.048, !- X,Y,Z Vertex 1 {m}
  2.1316282072803e-014, -2.48689957516035e-014, 0, !- X,Y,Z Vertex 2 {m}
  4.57200000000002, -2.48689957516035e-014, 0, !- X,Y,Z Vertex 3 {m}
  4.57200000000002, -2.48689957516035e-014, 3.048; !- X,Y,Z Vertex 4 {m}

OS:Surface,
  {2e298458-3580-4721-8010-88144802cbe6}, !- Handle
  Surface 6,                              !- Name
  RoofCeiling,                            !- Surface Type
  ,                                       !- Construction Name
  {6f1f6d2f-18fe-4f8d-8d89-0ae77e90b71b}, !- Space Name
  Adiabatic,                              !- Outside Boundary Condition
  ,                                       !- Outside Boundary Condition Object
  NoSun,                                  !- Sun Exposure
  NoWind,                                 !- Wind Exposure
  ,                                       !- View Factor to Ground
  ,                                       !- Number of Vertices
  4.57200000000002, -2.48689957516035e-014, 3.048, !- X,Y,Z Vertex 1 {m}
  4.57200000000002, 4.572, 3.048,         !- X,Y,Z Vertex 2 {m}
  2.1316282072803e-014, 4.572, 3.048,     !- X,Y,Z Vertex 3 {m}
  2.1316282072803e-014, -2.48689957516035e-014, 3.048; !- X,Y,Z Vertex 4 {m}

OS:ThermalZone,
  {c45f542a-6a32-4962-af88-270c8cef7493}, !- Handle
  Zone FullServiceRestaurant Kitchen A end_a - Story Ground, !- Name
  1,                                      !- Multiplier
  ,                                       !- Ceiling Height {m}
  ,                                       !- Volume {m3}
  ,                                       !- Floor Area {m2}
  ,                                       !- Zone Inside Convection Algorithm
  ,                                       !- Zone Outside Convection Algorithm
  ,                                       !- Zone Conditioning Equipment List Name
  {57ace245-b86f-4f92-9596-da1ffa48e6ee}, !- Zone Air Inlet Port List
  {ced31b0b-f50e-4be6-92dc-0fa281b0e77c}, !- Zone Air Exhaust Port List
  {1295552d-739c-442e-8ca7-162cc66342b0}, !- Zone Air Node Name
  {588f8803-041a-4211-9c00-a81f58ad0fbb}, !- Zone Return Air Port List
  ,                                       !- Primary Daylighting Control Name
  ,                                       !- Fraction of Zone Controlled by Primary Daylighting Control
  ,                                       !- Secondary Daylighting Control Name
  ,                                       !- Fraction of Zone Controlled by Secondary Daylighting Control
  ,                                       !- Illuminance Map Name
  ,                                       !- Group Rendering Name
  ,                                       !- Thermostat Name
  No;                                     !- Use Ideal Air Loads

OS:Node,
  {c87a3210-5731-4744-b1b3-61577fb8f63d}, !- Handle
  Node 1,                                 !- Name
  {1295552d-739c-442e-8ca7-162cc66342b0}, !- Inlet Port
  ;                                       !- Outlet Port

OS:Connection,
  {1295552d-739c-442e-8ca7-162cc66342b0}, !- Handle
  {d7a0ff07-9f04-4111-82e1-b509c9cc8851}, !- Name
  {c45f542a-6a32-4962-af88-270c8cef7493}, !- Source Object
  11,                                     !- Outlet Port
  {c87a3210-5731-4744-b1b3-61577fb8f63d}, !- Target Object
  2;                                      !- Inlet Port

OS:PortList,
  {57ace245-b86f-4f92-9596-da1ffa48e6ee}, !- Handle
  {0befc55b-15ae-44ef-91b3-25d57a40c6bf}, !- Name
  {c45f542a-6a32-4962-af88-270c8cef7493}; !- HVAC Component

OS:PortList,
  {ced31b0b-f50e-4be6-92dc-0fa281b0e77c}, !- Handle
  {fb6a964b-f0f9-4243-8ece-f84260f25daa}, !- Name
  {c45f542a-6a32-4962-af88-270c8cef7493}; !- HVAC Component

OS:PortList,
  {588f8803-041a-4211-9c00-a81f58ad0fbb}, !- Handle
  {207d2468-097c-4a6d-9a54-8e8b76347b2f}, !- Name
  {c45f542a-6a32-4962-af88-270c8cef7493}; !- HVAC Component

OS:Sizing:Zone,
  {e0651bbf-2689-441e-a237-df59ba8eb832}, !- Handle
  {c45f542a-6a32-4962-af88-270c8cef7493}, !- Zone or ZoneList Name
  SupplyAirTemperature,                   !- Zone Cooling Design Supply Air Temperature Input Method
  14,                                     !- Zone Cooling Design Supply Air Temperature {C}
  11.11,                                  !- Zone Cooling Design Supply Air Temperature Difference {deltaC}
  SupplyAirTemperature,                   !- Zone Heating Design Supply Air Temperature Input Method
  40,                                     !- Zone Heating Design Supply Air Temperature {C}
  11.11,                                  !- Zone Heating Design Supply Air Temperature Difference {deltaC}
  0.0085,                                 !- Zone Cooling Design Supply Air Humidity Ratio {kg-H2O/kg-air}
  0.008,                                  !- Zone Heating Design Supply Air Humidity Ratio {kg-H2O/kg-air}
  ,                                       !- Zone Heating Sizing Factor
  ,                                       !- Zone Cooling Sizing Factor
  DesignDay,                              !- Cooling Design Air Flow Method
  ,                                       !- Cooling Design Air Flow Rate {m3/s}
  ,                                       !- Cooling Minimum Air Flow per Zone Floor Area {m3/s-m2}
  ,                                       !- Cooling Minimum Air Flow {m3/s}
  ,                                       !- Cooling Minimum Air Flow Fraction
  DesignDay,                              !- Heating Design Air Flow Method
  ,                                       !- Heating Design Air Flow Rate {m3/s}
  ,                                       !- Heating Maximum Air Flow per Zone Floor Area {m3/s-m2}
  ,                                       !- Heating Maximum Air Flow {m3/s}
  ,                                       !- Heating Maximum Air Flow Fraction
  ,                                       !- Design Zone Air Distribution Effectiveness in Cooling Mode
  ,                                       !- Design Zone Air Distribution Effectiveness in Heating Mode
  No,                                     !- Account for Dedicated Outdoor Air System
  NeutralSupplyAir,                       !- Dedicated Outdoor Air System Control Strategy
  autosize,                               !- Dedicated Outdoor Air Low Setpoint Temperature for Design {C}
  autosize;                               !- Dedicated Outdoor Air High Setpoint Temperature for Design {C}

OS:ZoneHVAC:EquipmentList,
  {81464069-f66b-4201-918e-a92bf0e2774f}, !- Handle
  Zone HVAC Equipment List 1,             !- Name
  {c45f542a-6a32-4962-af88-270c8cef7493}; !- Thermal Zone

OS:Space,
  {e7518e28-4076-4b88-85be-1910d0c23a04}, !- Handle
  FullServiceRestaurant Kitchen B end_a - Story Ground, !- Name
  {94fc305f-67a8-4dc2-b7db-d6f37418cd72}, !- Space Type Name
  ,                                       !- Default Construction Set Name
  ,                                       !- Default Schedule Set Name
  -0,                                     !- Direction of Relative North {deg}
  -24.9838407775906,                      !- X Origin {m}
  -7.04839105934448,                      !- Y Origin {m}
  0,                                      !- Z Origin {m}
  {cbcf2490-60cc-4189-a65c-b94299f7988e}, !- Building Story Name
  {b8eb4bdc-84b7-4e7b-a27c-27098b3d5c64}; !- Thermal Zone Name

OS:Surface,
  {b6d20cea-48fd-42c2-832f-45d2f03ac8e9}, !- Handle
  Surface 7,                              !- Name
  Floor,                                  !- Surface Type
  ,                                       !- Construction Name
  {e7518e28-4076-4b88-85be-1910d0c23a04}, !- Space Name
  Ground,                                 !- Outside Boundary Condition
  ,                                       !- Outside Boundary Condition Object
  NoSun,                                  !- Sun Exposure
  NoWind,                                 !- Wind Exposure
  ,                                       !- View Factor to Ground
  ,                                       !- Number of Vertices
  2.1316282072803e-014, -4.44089209850063e-015, 0, !- X,Y,Z Vertex 1 {m}
  2.1316282072803e-014, 14.096782118689, 0, !- X,Y,Z Vertex 2 {m}
  4.57200000000002, 14.096782118689, 0,   !- X,Y,Z Vertex 3 {m}
  4.57200000000002, -4.44089209850063e-015, 0; !- X,Y,Z Vertex 4 {m}

OS:Surface,
  {9b2c3b28-97ba-42e8-a849-a3bc41cc780e}, !- Handle
  Surface 8,                              !- Name
  Wall,                                   !- Surface Type
  ,                                       !- Construction Name
  {e7518e28-4076-4b88-85be-1910d0c23a04}, !- Space Name
  Adiabatic,                              !- Outside Boundary Condition
  ,                                       !- Outside Boundary Condition Object
  NoSun,                                  !- Sun Exposure
  NoWind,                                 !- Wind Exposure
  ,                                       !- View Factor to Ground
  ,                                       !- Number of Vertices
  2.1316282072803e-014, 14.096782118689, 3.048, !- X,Y,Z Vertex 1 {m}
  2.1316282072803e-014, 14.096782118689, 0, !- X,Y,Z Vertex 2 {m}
  2.1316282072803e-014, -4.44089209850063e-015, 0, !- X,Y,Z Vertex 3 {m}
  2.1316282072803e-014, -4.44089209850063e-015, 3.048; !- X,Y,Z Vertex 4 {m}

OS:Surface,
  {2f100b9c-2c85-4613-ae36-29e48ad7d02f}, !- Handle
  Surface 9,                              !- Name
  Wall,                                   !- Surface Type
  ,                                       !- Construction Name
  {e7518e28-4076-4b88-85be-1910d0c23a04}, !- Space Name
  Surface,                                !- Outside Boundary Condition
  {d1eab7b0-c24f-4cb7-9445-f9cacc00d7ac}, !- Outside Boundary Condition Object
  NoSun,                                  !- Sun Exposure
  NoWind,                                 !- Wind Exposure
  ,                                       !- View Factor to Ground
  ,                                       !- Number of Vertices
  4.57200000000002, 14.096782118689, 3.048, !- X,Y,Z Vertex 1 {m}
  4.57200000000002, 14.096782118689, 0,   !- X,Y,Z Vertex 2 {m}
  2.1316282072803e-014, 14.096782118689, 0, !- X,Y,Z Vertex 3 {m}
  2.1316282072803e-014, 14.096782118689, 3.048; !- X,Y,Z Vertex 4 {m}

OS:Surface,
  {c5a817e0-0e59-4b7f-b279-261401dd4287}, !- Handle
  Surface 10,                             !- Name
  Wall,                                   !- Surface Type
  ,                                       !- Construction Name
  {e7518e28-4076-4b88-85be-1910d0c23a04}, !- Space Name
  Surface,                                !- Outside Boundary Condition
  {3365355e-7565-4c88-a1ff-4adfb1699bf7}, !- Outside Boundary Condition Object
  NoSun,                                  !- Sun Exposure
  NoWind,                                 !- Wind Exposure
  ,                                       !- View Factor to Ground
  ,                                       !- Number of Vertices
  4.57200000000002, -4.44089209850063e-015, 3.048, !- X,Y,Z Vertex 1 {m}
  4.57200000000002, -4.44089209850063e-015, 0, !- X,Y,Z Vertex 2 {m}
  4.57200000000002, 14.096782118689, 0,   !- X,Y,Z Vertex 3 {m}
  4.57200000000002, 14.096782118689, 3.048; !- X,Y,Z Vertex 4 {m}

OS:Surface,
  {b10f7530-357a-46b7-af91-299359c77dea}, !- Handle
  Surface 11,                             !- Name
  Wall,                                   !- Surface Type
  ,                                       !- Construction Name
  {e7518e28-4076-4b88-85be-1910d0c23a04}, !- Space Name
  Surface,                                !- Outside Boundary Condition
  {a39999bc-6ea2-43f8-b73b-6ed4ef16537c}, !- Outside Boundary Condition Object
  NoSun,                                  !- Sun Exposure
  NoWind,                                 !- Wind Exposure
  ,                                       !- View Factor to Ground
  ,                                       !- Number of Vertices
  2.1316282072803e-014, -4.44089209850063e-015, 3.048, !- X,Y,Z Vertex 1 {m}