
OS:Version,
  {363f623e-a7ed-4823-ab63-7337e4e1d805}, !- Handle
  2.7.2;                                  !- Version Identifier

OS:SpaceType,
  {4cc84b3e-70b4-405f-9dd7-819b871eed5f}, !- Handle
  LargeHotel Banquet,                     !- Name
  ,                                       !- Default Construction Set Name
  ,                                       !- Default Schedule Set Name
  {6698352f-9e42-4724-9c55-d75bc5307497}, !- Group Rendering Name
  ,                                       !- Design Specification Outdoor Air Object Name
  ,                                       !- Standards Template
  LargeHotel,                             !- Standards Building Type
  Banquet;                                !- Standards Space Type

OS:Rendering:Color,
  {6698352f-9e42-4724-9c55-d75bc5307497}, !- Handle
  LargeHotel Banquet,                     !- Name
  230,                                    !- Rendering Red Value
  196,                                    !- Rendering Green Value
  120;                                    !- Rendering Blue Value

OS:SpaceType,
  {0d68d90b-5389-4d20-a6a2-4654f3a65bf3}, !- Handle
  LargeHotel Cafe,                        !- Name
  ,                                       !- Default Construction Set Name
  ,                                       !- Default Schedule Set Name
  {29ee51c8-6b85-4450-a9fd-743b8268d6a6}, !- Group Rendering Name
  ,                                       !- Design Specification Outdoor Air Object Name
  ,                                       !- Standards Template
  LargeHotel,                             !- Standards Building Type
  Cafe;                                   !- Standards Space Type

OS:Rendering:Color,
  {29ee51c8-6b85-4450-a9fd-743b8268d6a6}, !- Handle
  LargeHotel Cafe,                        !- Name
  31,                                     !- Rendering Red Value
  169,                                    !- Rendering Green Value
  34;                                     !- Rendering Blue Value

OS:SpaceType,
  {7542366b-7b6e-4a6e-824c-2512ae09caa3}, !- Handle
  LargeHotel Corridor,                    !- Name
  ,                                       !- Default Construction Set Name
  ,                                       !- Default Schedule Set Name
  {04f2ab1b-0825-47dc-b5fb-e596259ee191}, !- Group Rendering Name
  ,                                       !- Design Specification Outdoor Air Object Name
  ,                                       !- Standards Template
  LargeHotel,                             !- Standards Building Type
  Corridor;                               !- Standards Space Type

OS:Rendering:Color,
  {04f2ab1b-0825-47dc-b5fb-e596259ee191}, !- Handle
  LargeHotel Corridor,                    !- Name
  169,                                    !- Rendering Red Value
  31,                                     !- Rendering Green Value
  31;                                     !- Rendering Blue Value

OS:SpaceType,
  {8fa9faa1-c056-4e62-ae87-4a61499a8bb6}, !- Handle
  LargeHotel GuestRoom,                   !- Name
  ,                                       !- Default Construction Set Name
  ,                                       !- Default Schedule Set Name
  {f2d72154-ce92-454e-8a20-a244c14c2a76}, !- Group Rendering Name
  ,                                       !- Design Specification Outdoor Air Object Name
  ,                                       !- Standards Template
  LargeHotel,                             !- Standards Building Type
  GuestRoom;                              !- Standards Space Type

OS:Rendering:Color,
  {f2d72154-ce92-454e-8a20-a244c14c2a76}, !- Handle
  LargeHotel GuestRoom,                   !- Name
  78,                                     !- Rendering Red Value
  167,                                    !- Rendering Green Value
  222;                                    !- Rendering Blue Value

OS:SpaceType,
  {ac0fe289-de61-490a-a552-3c0181bb3b32}, !- Handle
  LargeHotel Kitchen,                     !- Name
  ,                                       !- Default Construction Set Name
  ,                                       !- Default Schedule Set Name
  {6014b36e-29c9-4e76-8ee9-a6a534d4fed4}, !- Group Rendering Name
  ,                                       !- Design Specification Outdoor Air Object Name
  ,                                       !- Standards Template
  LargeHotel,                             !- Standards Building Type
  Kitchen;                                !- Standards Space Type

OS:Rendering:Color,
  {6014b36e-29c9-4e76-8ee9-a6a534d4fed4}, !- Handle
  LargeHotel Kitchen,                     !- Name
  78,                                     !- Rendering Red Value
  222,                                    !- Rendering Green Value
  133;                                    !- Rendering Blue Value

OS:SpaceType,
  {bd1b5da4-5470-469e-8b31-476c9ca302e4}, !- Handle
  LargeHotel Laundry,                     !- Name
  ,                                       !- Default Construction Set Name
  ,                                       !- Default Schedule Set Name
  {99cfd538-5ae5-4e6c-8462-8b577884ccb7}, !- Group Rendering Name
  ,                                       !- Design Specification Outdoor Air Object Name
  ,                                       !- Standards Template
  LargeHotel,                             !- Standards Building Type
  Laundry;                                !- Standards Space Type

OS:Rendering:Color,
  {99cfd538-5ae5-4e6c-8462-8b577884ccb7}, !- Handle
  LargeHotel Laundry,                     !- Name
  120,                                    !- Rendering Red Value
  149,                                    !- Rendering Green Value
  230;                                    !- Rendering Blue Value

OS:SpaceType,
  {1f9c1806-74d6-4769-9c7b-de4f72b811c8}, !- Handle
  LargeHotel Lobby,                       !- Name
  ,                                       !- Default Construction Set Name
  ,                                       !- Default Schedule Set Name
  {531fe570-d7b1-4c0b-b6fd-c47122e40f24}, !- Group Rendering Name
  ,                                       !- Design Specification Outdoor Air Object Name
  ,                                       !- Standards Template
  LargeHotel,                             !- Standards Building Type
  Lobby;                                  !- Standards Space Type

OS:Rendering:Color,
  {531fe570-d7b1-4c0b-b6fd-c47122e40f24}, !- Handle
  LargeHotel Lobby,                       !- Name
  230,                                    !- Rendering Red Value
  157,                                    !- Rendering Green Value
  120;                                    !- Rendering Blue Value

OS:SpaceType,
  {02e8a622-1dc2-4f99-85dd-a7b045afa0a1}, !- Handle
  LargeHotel Mechanical,                  !- Name
  ,                                       !- Default Construction Set Name
  ,                                       !- Default Schedule Set Name
  {28fef794-49cd-4889-84cd-51529d9a28af}, !- Group Rendering Name
  ,                                       !- Design Specification Outdoor Air Object Name
  ,                                       !- Standards Template
  LargeHotel,                             !- Standards Building Type
  Mechanical;                             !- Standards Space Type

OS:Rendering:Color,
  {28fef794-49cd-4889-84cd-51529d9a28af}, !- Handle
  LargeHotel Mechanical,                  !- Name
  41,                                     !- Rendering Red Value
  31,                                     !- Rendering Green Value
  169;                                    !- Rendering Blue Value

OS:SpaceType,
  {f84cf19f-3f32-480e-9bd8-6a2ea03fe38d}, !- Handle
  LargeHotel Retail,                      !- Name
  ,                                       !- Default Construction Set Name
  ,                                       !- Default Schedule Set Name
  {5921a3df-d5f8-4aa6-a54d-89107b25e008}, !- Group Rendering Name
  ,                                       !- Design Specification Outdoor Air Object Name
  ,                                       !- Standards Template
  LargeHotel,                             !- Standards Building Type
  Retail;                                 !- Standards Space Type

OS:Rendering:Color,
  {5921a3df-d5f8-4aa6-a54d-89107b25e008}, !- Handle
  LargeHotel Retail,                      !- Name
  171,                                    !- Rendering Red Value
  222,                                    !- Rendering Green Value
  78;                                     !- Rendering Blue Value

OS:SpaceType,
  {0c4176c7-5fed-444c-9706-95151a2d3240}, !- Handle
  LargeHotel Storage,                     !- Name
  ,                                       !- Default Construction Set Name
  ,                                       !- Default Schedule Set Name
  {54733a4c-594e-47fb-ba74-3e8047ab0aea}, !- Group Rendering Name
  ,                                       !- Design Specification Outdoor Air Object Name
  ,                                       !- Standards Template
  LargeHotel,                             !- Standards Building Type
  Storage;                                !- Standards Space Type

OS:Rendering:Color,
  {54733a4c-594e-47fb-ba74-3e8047ab0aea}, !- Handle
  LargeHotel Storage,                     !- Name
  120,                                    !- Rendering Red Value
  149,                                    !- Rendering Green Value
  230;                                    !- Rendering Blue Value

OS:SpaceType,
  {9c1bbb99-9fc7-4ab7-8bee-30f6e234d07d}, !- Handle
  FullServiceRestaurant Dining,           !- Name
  ,                                       !- Default Construction Set Name
  ,                                       !- Default Schedule Set Name
  {45651bd0-7cb3-4688-87f0-c91576eccfa0}, !- Group Rendering Name
  ,                                       !- Design Specification Outdoor Air Object Name
  ,                                       !- Standards Template
  FullServiceRestaurant,                  !- Standards Building Type
  Dining;                                 !- Standards Space Type

OS:Rendering:Color,
  {45651bd0-7cb3-4688-87f0-c91576eccfa0}, !- Handle
  FullServiceRestaurant Dining,           !- Name
  31,                                     !- Rendering Red Value
  169,                                    !- Rendering Green Value
  34;                                     !- Rendering Blue Value

OS:SpaceType,
  {389f0781-af49-40a7-bce3-2aa7c4745953}, !- Handle
  FullServiceRestaurant Kitchen,          !- Name
  ,                                       !- Default Construction Set Name
  ,                                       !- Default Schedule Set Name
  {cee7c42e-c804-455c-a19f-53192acd344c}, !- Group Rendering Name
  ,                                       !- Design Specification Outdoor Air Object Name
  ,                                       !- Standards Template
  FullServiceRestaurant,                  !- Standards Building Type
  Kitchen;                                !- Standards Space Type

OS:Rendering:Color,
  {cee7c42e-c804-455c-a19f-53192acd344c}, !- Handle
  FullServiceRestaurant Kitchen,          !- Name
  78,                                     !- Rendering Red Value
  222,                                    !- Rendering Green Value
  133;                                    !- Rendering Blue Value

OS:Building,
  {64d42137-6014-4dc9-adb4-859a6a0cb4a1}, !- Handle
  90.1-2004|LargeHotel|FullServiceRestaurant, !- Name
  ,                                       !- Building Sector Type
  ,                                       !- North Axis {deg}
  ,                                       !- Nominal Floor to Floor Height {m}
  ,                                       !- Space Type Name
  ,                                       !- Default Construction Set Name
  ;                                       !- Default Schedule Set Name

OS:Site,
  {8afebfa5-7d1a-41a5-bf04-4daec00710f6}, !- Handle
  Site 1,                                 !- Name
  ,                                       !- Latitude {deg}
  ,                                       !- Longitude {deg}
  ,                                       !- Time Zone {hr}
  ,                                       !- Elevation {m}
  ;                                       !- Terrain

OS:BuildingStory,
  {1b06934e-0daf-44ee-8b23-d0a802338aa2}, !- Handle
  Story B1,                               !- Name
  -3.048,                                 !- Nominal Z Coordinate {m}
  3.048,                                  !- Nominal Floor to Floor Height {m}
  ,                                       !- Default Construction Set Name
  ,                                       !- Default Schedule Set Name
  ;                                       !- Group Rendering Name

OS:Space,
  {ee90d778-6305-4368-b417-1e5fda1f002d}, !- Handle
  LargeHotel Cafe A end_a - Story B1,     !- Name
  {0d68d90b-5389-4d20-a6a2-4654f3a65bf3}, !- Space Type Name
  ,                                       !- Default Construction Set Name
  ,                                       !- Default Schedule Set Name
  -0,                                     !- Direction of Relative North {deg}
  -20.3992205733454,                      !- X Origin {m}
  -9.48800956899788,                      !- Y Origin {m}
  -3.048,                                 !- Z Origin {m}
  {1b06934e-0daf-44ee-8b23-d0a802338aa2}, !- Building Story Name
  {f70890d6-576b-47f8-b853-8c399c8c3ec3}; !- Thermal Zone Name

OS:Surface,
  {dc6eb1e1-e260-4d3d-99c9-718daa62c0a1}, !- Handle
  Surface 1,                              !- Name
  Floor,                                  !- Surface Type
  ,                                       !- Construction Name
  {ee90d778-6305-4368-b417-1e5fda1f002d}, !- Space Name
  Ground,                                 !- Outside Boundary Condition
  ,                                       !- Outside Boundary Condition Object
  NoSun,                                  !- Sun Exposure
  NoWind,                                 !- Wind Exposure
  ,                                       !- View Factor to Ground
  ,                                       !- Number of Vertices
  4.61852778244065e-014, 0, 0,            !- X,Y,Z Vertex 1 {m}
  4.61852778244065e-014, 4.572, 0,        !- X,Y,Z Vertex 2 {m}
  4.57200000000005, 4.572, 0,             !- X,Y,Z Vertex 3 {m}
  4.57200000000005, 0, 0;                 !- X,Y,Z Vertex 4 {m}

OS:Surface,
  {9662206a-246f-48c6-b485-c6b923b4b573}, !- Handle
  Surface 2,                              !- Name
  Wall,                                   !- Surface Type
  ,                                       !- Construction Name
  {ee90d778-6305-4368-b417-1e5fda1f002d}, !- Space Name
  Ground,                                 !- Outside Boundary Condition
  ,                                       !- Outside Boundary Condition Object
  NoSun,                                  !- Sun Exposure
  NoWind,                                 !- Wind Exposure
  ,                                       !- View Factor to Ground
  ,                                       !- Number of Vertices
  4.61852778244065e-014, 4.572, 3.048,    !- X,Y,Z Vertex 1 {m}
  4.61852778244065e-014, 4.572, 0,        !- X,Y,Z Vertex 2 {m}
  4.61852778244065e-014, 0, 0,            !- X,Y,Z Vertex 3 {m}
  4.61852778244065e-014, 0, 3.048;        !- X,Y,Z Vertex 4 {m}

OS:Surface,
  {c21fa0b3-ac18-47fe-ae6f-f3bd394478ab}, !- Handle
  Surface 3,                              !- Name
  Wall,                                   !- Surface Type
  ,                                       !- Construction Name
  {ee90d778-6305-4368-b417-1e5fda1f002d}, !- Space Name
  Surface,                                !- Outside Boundary Condition
  {2dd80104-2c21-430e-a132-20c2fdf4c057}, !- Outside Boundary Condition Object
  NoSun,                                  !- Sun Exposure
  NoWind,                                 !- Wind Exposure
  ,                                       !- View Factor to Ground
  ,                                       !- Number of Vertices
  4.57200000000005, 4.572, 3.048,         !- X,Y,Z Vertex 1 {m}
  4.57200000000005, 4.572, 0,             !- X,Y,Z Vertex 2 {m}
  4.61852778244065e-014, 4.572, 0,        !- X,Y,Z Vertex 3 {m}
  4.61852778244065e-014, 4.572, 3.048;    !- X,Y,Z Vertex 4 {m}

OS:Surface,
  {84c024d2-61b2-4e3a-8a46-95703036c6fa}, !- Handle
  Surface 4,                              !- Name
  Wall,                                   !- Surface Type
  ,                                       !- Construction Name
  {ee90d778-6305-4368-b417-1e5fda1f002d}, !- Space Name
  Surface,                                !- Outside Boundary Condition
  {0e699433-3b86-4bec-a412-c5bbf8a33bed}, !- Outside Boundary Condition Object
  NoSun,                                  !- Sun Exposure
  NoWind,                                 !- Wind Exposure
  ,                                       !- View Factor to Ground
  ,                                       !- Number of Vertices
  4.57200000000005, 0, 3.048,             !- X,Y,Z Vertex 1 {m}
  4.57200000000005, 0, 0,                 !- X,Y,Z Vertex 2 {m}
  4.57200000000005, 4.572, 0,             !- X,Y,Z Vertex 3 {m}
  4.57200000000005, 4.572, 3.048;         !- X,Y,Z Vertex 4 {m}

OS:Surface,
  {e2e5ba54-9d55-4c96-9803-e6e33a2894ac}, !- Handle
  Surface 5,                              !- Name
  Wall,                                   !- Surface Type
  ,                                       !- Construction Name
  {ee90d778-6305-4368-b417-1e5fda1f002d}, !- Space Name
  Ground,                                 !- Outside Boundary Condition
  ,                                       !- Outside Boundary Condition Object
  NoSun,                                  !- Sun Exposure
  NoWind,                                 !- Wind Exposure
  ,                                       !- View Factor to Ground
  ,                                       !- Number of Vertices
  4.61852778244065e-014, 0, 3.048,        !- X,Y,Z Vertex 1 {m}
  4.61852778244065e-014, 0, 0,            !- X,Y,Z Vertex 2 {m}
  4.57200000000005, 0, 0,                 !- X,Y,Z Vertex 3 {m}
  4.57200000000005, 0, 3.048;             !- X,Y,Z Vertex 4 {m}

OS:Surface,
  {34f93400-dc76-4583-8682-4228974ce3ec}, !- Handle
  Surface 6,                              !- Name
  RoofCeiling,                            !- Surface Type
  ,                                       !- Construction Name
  {ee90d778-6305-4368-b417-1e5fda1f002d}, !- Space Name
  Surface,                                !- Outside Boundary Condition
  {c2701344-54ae-4017-9b04-08c57c8b7ca6}, !- Outside Boundary Condition Object
  NoSun,                                  !- Sun Exposure
  NoWind,                                 !- Wind Exposure
  ,                                       !- View Factor to Ground
  ,                                       !- Number of Vertices
  4.57200000000005, 0, 3.048,             !- X,Y,Z Vertex 1 {m}
  4.57200000000005, 4.572, 3.048,         !- X,Y,Z Vertex 2 {m}
  4.61852778244065e-014, 4.572, 3.048,    !- X,Y,Z Vertex 3 {m}
  4.61852778244065e-014, 0, 3.048;        !- X,Y,Z Vertex 4 {m}

OS:ThermalZone,
  {f70890d6-576b-47f8-b853-8c399c8c3ec3}, !- Handle
  Zone LargeHotel Cafe A end_a - Story B1, !- Name
  1,                                      !- Multiplier
  ,                                       !- Ceiling Height {m}
  ,                                       !- Volume {m3}
  ,                                       !- Floor Area {m2}
  ,                                       !- Zone Inside Convection Algorithm
  ,                                       !- Zone Outside Convection Algorithm
  ,                                       !- Zone Conditioning Equipment List Name
  {f87fb11b-ce15-41f3-9e93-4b1451a311a9}, !- Zone Air Inlet Port List
  {87a2cad1-27e5-442b-8fff-7074bffd6e16}, !- Zone Air Exhaust Port List
  {401f6167-1cad-47dc-84ef-2e77552adf4d}, !- Zone Air Node Name
  {3fa160a7-74f3-4059-81fd-0dc18b08434a}, !- Zone Return Air Port List
  ,                                       !- Primary Daylighting Control Name
  ,                                       !- Fraction of Zone Controlled by Primary Daylighting Control
  ,                                       !- Secondary Daylighting Control Name
  ,                                       !- Fraction of Zone Controlled by Secondary Daylighting Control
  ,                                       !- Illuminance Map Name
  ,                                       !- Group Rendering Name
  ,                                       !- Thermostat Name
  No;                                     !- Use Ideal Air Loads

OS:Node,
  {feaa4841-7605-4c1b-8182-66a55ab63ab2}, !- Handle
  Node 1,                                 !- Name
  {401f6167-1cad-47dc-84ef-2e77552adf4d}, !- Inlet Port
  ;                                       !- Outlet Port

OS:Connection,
  {401f6167-1cad-47dc-84ef-2e77552adf4d}, !- Handle
  {687e3b6e-bad8-43b2-9575-d5328e78193d}, !- Name
  {f70890d6-576b-47f8-b853-8c399c8c3ec3}, !- Source Object
  11,                                     !- Outlet Port
  {feaa4841-7605-4c1b-8182-66a55ab63ab2}, !- Target Object
  2;                                      !- Inlet Port

OS:PortList,
  {f87fb11b-ce15-41f3-9e93-4b1451a311a9}, !- Handle
  {d90669e6-3ba4-422e-8020-92f6153998a0}, !- Name
  {f70890d6-576b-47f8-b853-8c399c8c3ec3}; !- HVAC Component

OS:PortList,
  {87a2cad1-27e5-442b-8fff-7074bffd6e16}, !- Handle
  {5fcbaec8-ca7b-4987-8ae2-454a55b7be08}, !- Name
  {f70890d6-576b-47f8-b853-8c399c8c3ec3}; !- HVAC Component

OS:PortList,
  {3fa160a7-74f3-4059-81fd-0dc18b08434a}, !- Handle
  {7ece8c5d-e000-4622-87d7-6cf20e3e0540}, !- Name
  {f70890d6-576b-47f8-b853-8c399c8c3ec3}; !- HVAC Component

OS:Sizing:Zone,
  {1bd86a8f-280d-4227-bd1f-b7d5f1fb60ea}, !- Handle
  {f70890d6-576b-47f8-b853-8c399c8c3ec3}, !- Zone or ZoneList Name
  SupplyAirTemperature,                   !- Zone Cooling Design Supply Air Temperature Input Method
  14,                                     !- Zone Cooling Design Supply Air Temperature {C}
  11.11,                                  !- Zone Cooling Design Supply Air Temperature Difference {deltaC}
  SupplyAirTemperature,                   !- Zone Heating Design Supply Air Temperature Input Method
  40,                                     !- Zone Heating Design Supply Air Temperature {C}
  11.11,                                  !- Zone Heating Design Supply Air Temperature Difference {deltaC}
  0.0085,                                 !- Zone Cooling Design Supply Air Humidity Ratio {kg-H2O/kg-air}
  0.008,                                  !- Zone Heating Design Supply Air Humidity Ratio {kg-H2O/kg-air}
  ,                                       !- Zone Heating Sizing Factor
  ,                                       !- Zone Cooling Sizing Factor
  DesignDay,                              !- Cooling Design Air Flow Method
  ,                                       !- Cooling Design Air Flow Rate {m3/s}
  ,                                       !- Cooling Minimum Air Flow per Zone Floor Area {m3/s-m2}
  ,                                       !- Cooling Minimum Air Flow {m3/s}
  ,                                       !- Cooling Minimum Air Flow Fraction
  DesignDay,                              !- Heating Design Air Flow Method
  ,                                       !- Heating Design Air Flow Rate {m3/s}
  ,                                       !- Heating Maximum Air Flow per Zone Floor Area {m3/s-m2}
  ,                                       !- Heating Maximum Air Flow {m3/s}
  ,                                       !- Heating Maximum Air Flow Fraction
  ,                                       !- Design Zone Air Distribution Effectiveness in Cooling Mode
  ,                                       !- Design Zone Air Distribution Effectiveness in Heating Mode
  No,                                     !- Account for Dedicated Outdoor Air System
  NeutralSupplyAir,                       !- Dedicated Outdoor Air System Control Strategy
  autosize,                               !- Dedicated Outdoor Air Low Setpoint Temperature for Design {C}
  autosize;                               !- Dedicated Outdoor Air High Setpoint Temperature for Design {C}

OS:ZoneHVAC:EquipmentList,
  {b20d06ca-f479-454a-a859-17fe6d325ac2}, !- Handle
  Zone HVAC Equipment List 1,             !- Name
  {f70890d6-576b-47f8-b853-8c399c8c3ec3}; !- Thermal Zone

OS:Space,
  {76dc56bf-b63b-458a-bf65-f953ca2a5b40}, !- Handle
  LargeHotel Cafe B end_a - Story B1,     !- Name
  {0d68d90b-5389-4d20-a6a2-4654f3a65bf3}, !- Space Type Name
  ,                                       !- Default Construction Set Name
  ,                                       !- Default Schedule Set Name
  -0,                                     !- Direction of Relative North {deg}
  -20.3992205733454,                      !- X Origin {m}
  -4.91600956899788,                      !- Y Origin {m}
  -3.048,                                 !- Z Origin {m}
  {1b06934e-0daf-44ee-8b23-d0a802338aa2}, !- Building Story Name
  {048d5544-a3b9-41b3-857f-f93567726d67}; !- Thermal Zone Name

OS:Surface,
  {e551b0c9-e98b-4ebc-8236-f7f4e1eba066}, !- Handle
  Surface 7,                              !- Name
  Floor,                                  !- Surface Type
  ,                                       !- Construction Name
  {76dc56bf-b63b-458a-bf65-f953ca2a5b40}, !- Space Name
  Ground,                                 !- Outside Boundary Condition
  ,                                       !- Outside Boundary Condition Object
  NoSun,                                  !- Sun Exposure
  NoWind,                                 !- Wind Exposure
  ,                                       !- View Factor to Ground
  ,                                       !- Number of Vertices
  4.61852778244065e-014, 0, 0,            !- X,Y,Z Vertex 1 {m}
  4.61852778244065e-014, 9.83201913799576, 0, !- X,Y,Z Vertex 2 {m}
  4.57200000000005, 9.83201913799576, 0,  !- X,Y,Z Vertex 3 {m}
  4.57200000000005, 0, 0;                 !- X,Y,Z Vertex 4 {m}

OS:Surface,
  {4d1510b0-8462-4014-b685-fbe37aca9b38}, !- Handle
  Surface 8,                              !- Name
  Wall,                                   !- Surface Type
  ,                                       !- Construction Name
  {76dc56bf-b63b-458a-bf65-f953ca2a5b40}, !- Space Name
  Ground,                                 !- Outside Boundary Condition
  ,                                       !- Outside Boundary Condition Object
  NoSun,                                  !- Sun Exposure
  NoWind,                                 !- Wind Exposure
  ,                                       !- View Factor to Ground
  ,                                       !- Number of Vertices
  4.61852778244065e-014, 9.83201913799576, 3.048, !- X,Y,Z Vertex 1 {m}
  4.61852778244065e-014, 9.83201913799576, 0, !- X,Y,Z Vertex 2 {m}
  4.61852778244065e-014, 0, 0,            !- X,Y,Z Vertex 3 {m}
  4.61852778244065e-014, 0, 3.048;        !- X,Y,Z Vertex 4 {m}

OS:Surface,
  {70182124-5a60-4a8f-8d71-f7ecef824ff7}, !- Handle
  Surface 9,                              !- Name
  Wall,                                   !- Surface Type
  ,                                       !- Construction Name
  {76dc56bf-b63b-458a-bf65-f953ca2a5b40}, !- Space Name
  Surface,                                !- Outside Boundary Condition
  {c79dfb2a-2b40-4036-95f5-61f4e5f85294}, !- Outside Boundary Condition Object
  NoSun,                                  !- Sun Exposure
  NoWind,                                 !- Wind Exposure
  ,                                       !- View Factor to Ground
  ,                                       !- Number of Vertices
  4.57200000000005, 9.83201913799576, 3.048, !- X,Y,Z Vertex 1 {m}
  4.57200000000005, 9.83201913799576, 0,  !- X,Y,Z Vertex 2 {m}
  4.61852778244065e-014, 9.83201913799576, 0, !- X,Y,Z Vertex 3 {m}
  4.61852778244065e-014, 9.83201913799576, 3.048; !- X,Y,Z Vertex 4 {m}

OS:Surface,
  {455d4a79-59a7-45c6-b20b-a20f21a30b9d}, !- Handle
  Surface 10,                             !- Name
  Wall,                                   !- Surface Type
  ,                                       !- Construction Name
  {76dc56bf-b63b-458a-bf65-f953ca2a5b40}, !- Space Name
  Surface,                                !- Outside Boundary Condition
  {8500f8fb-dc7e-492c-8138-ff55ba79d76e}, !- Outside Boundary Condition Object
  NoSun,                                  !- Sun Exposure
  NoWind,                                 !- Wind Exposure
  ,                                       !- View Factor to Ground
  ,                                       !- Number of Vertices
  4.57200000000005, 0, 3.048,             !- X,Y,Z Vertex 1 {m}
  4.57200000000005, 0, 0,                 !- X,Y,Z Vertex 2 {m}
  4.57200000000005, 9.83201913799576, 0,  !- X,Y,Z Vertex 3 {m}
  4.57200000000005, 9.83201913799576, 3.048; !- X,Y,Z Vertex 4 {m}

OS:Surface,
  {2dd80104-2c21-430e-a132-20c2fdf4c057}, !- Handle
  Surface 11,                             !- Name
  Wall,                                   !- Surface Type
  ,                                       !- Construction Name
  {76dc56bf-b63b-458a-bf65-f953ca2a5b40}, !- Space Name
  Surface,                                !- Outside Boundary Condition
  {c21fa0b3-ac18-47fe-ae6f-f3bd394478ab}, !- Outside Boundary Condition Object
  NoSun,                                  !- Sun Exposure
  NoWind,                                 !- Wind Exposure
  ,                                       !- View Factor to Ground
  ,                                       !- Number of Vertices
  4.61852778244065e-014, 0, 3.048,        !- X,Y,Z Vertex 1 {m}
  4.61852778244065e-014, 0, 0,            !- X,Y,Z Vertex 2 {m}
  4.57200000000005, 0, 0,                 !- X,Y,Z Vertex 3 {m}
  4.57200000000005, 0, 3.048;             !- X,Y,Z Vertex 4 {m}

OS:Surface,