
OS:Version,
  {961e9d12-e307-4303-878d-91aed6818f35}, !- Handle
  2.7.2;                                  !- Version Identifier

OS:SpaceType,
  {52788e97-92d0-4533-a2e1-92493cb3d3f8}, !- Handle
  Office WholeBuilding - Md Office,       !- Name
  ,                                       !- Default Construction Set Name
  ,                                       !- Default Schedule Set Name
  {a541b6f3-3b05-4ad8-b78c-883cae9953ad}, !- Group Rendering Name
  ,                                       !- Design Specification Outdoor Air Object Name
  ,                                       !- Standards Template
  Office,                                 !- Standards Building Type
  WholeBuilding - Md Office;              !- Standards Space Type

OS:Rendering:Color,
  {a541b6f3-3b05-4ad8-b78c-883cae9953ad}, !- Handle
  Office WholeBuilding - Md Office,       !- Name
  120,                                    !- Rendering Red Value
  230,                                    !- Rendering Green Value
  199;                                    !- Rendering Blue Value

OS:Building,
  {4107b9ad-fd99-4eb6-b04a-ac317cfe6ba0}, !- Handle
  90.1-2004|MediumOffice,                 !- Name
  ,                                       !- Building Sector Type
  ,                                       !- North Axis {deg}
  ,                                       !- Nominal Floor to Floor Height {m}
  {52788e97-92d0-4533-a2e1-92493cb3d3f8}, !- Space Type Name
  ,                                       !- Default Construction Set Name
  ;                                       !- Default Schedule Set Name

OS:Site,
  {737e6a4a-1660-438e-9e9d-c2d7e22c6112}, !- Handle
  Site 1,                                 !- Name
  ,                                       !- Latitude {deg}
  ,                                       !- Longitude {deg}
  ,                                       !- Time Zone {hr}
  ,                                       !- Elevation {m}
  ;                                       !- Terrain

OS:BuildingStory,
  {b7473906-aa4e-4674-ba27-b5e71ca2a620}, !- Handle
  Story Ground,                           !- Name
  0,                                      !- Nominal Z Coordinate {m}
  3.9624,                                 !- Nominal Floor to Floor Height {m}
  ,                                       !- Default Construction Set Name
  ,                                       !- Default Schedule Set Name
  ;                                       !- Group Rendering Name

OS:Space,
  {a521cd2c-32c2-4a23-a532-cee785ef3e19}, !- Handle
  West Perimeter Space - Story Ground,    !- Name
  ,                                       !- Space Type Name
  ,                                       !- Default Construction Set Name
  ,                                       !- Default Schedule Set Name
  -0,                                     !- Direction of Relative North {deg}
  -17.5976362048998,                      !- X Origin {m}
  -11.7317574699332,                      !- Y Origin {m}
  0,                                      !- Z Origin {m}
  {b7473906-aa4e-4674-ba27-b5e71ca2a620}, !- Building Story Name
  {e0af4fe0-ef29-4209-a194-dc3076f94117}; !- Thermal Zone Name

OS:Surface,
  {b7e57cb1-73d8-4b48-9374-9f39806f5b4f}, !- Handle
  Surface 1,                              !- Name
  Floor,                                  !- Surface Type
  ,                                       !- Construction Name
  {a521cd2c-32c2-4a23-a532-cee785ef3e19}, !- Space Name
  Adiabatic,                              !- Outside Boundary Condition
  ,                                       !- Outside Boundary Condition Object
  NoSun,                                  !- Sun Exposure
  NoWind,                                 !- Wind Exposure
  ,                                       !- View Factor to Ground
  ,                                       !- Number of Vertices
  -7.105427357601e-015, -3.5527136788005e-015, 0, !- X,Y,Z Vertex 1 {m}
  -7.105427357601e-015, 23.4635149398664, 0, !- X,Y,Z Vertex 2 {m}
  4.57199999999999, 18.8915149398664, 0,  !- X,Y,Z Vertex 3 {m}
  4.57199999999999, 4.572, 0;             !- X,Y,Z Vertex 4 {m}

OS:Surface,
  {4a405952-49bc-4e95-a04e-8ba324ffb572}, !- Handle
  Surface 2,                              !- Name
  Wall,                                   !- Surface Type
  ,                                       !- Construction Name
  {a521cd2c-32c2-4a23-a532-cee785ef3e19}, !- Space Name
  Outdoors,                               !- Outside Boundary Condition
  ,                                       !- Outside Boundary Condition Object
  SunExposed,                             !- Sun Exposure
  WindExposed,                            !- Wind Exposure
  ,                                       !- View Factor to Ground
  ,                                       !- Number of Vertices
  -7.105427357601e-015, 23.4635149398664, 3.9624, !- X,Y,Z Vertex 1 {m}
  -7.105427357601e-015, 23.4635149398664, 0, !- X,Y,Z Vertex 2 {m}
  -7.105427357601e-015, -3.5527136788005e-015, 0, !- X,Y,Z Vertex 3 {m}
  -7.105427357601e-015, -3.5527136788005e-015, 3.9624; !- X,Y,Z Vertex 4 {m}

OS:Surface,
  {d46fb88c-2eff-4781-9609-4ca9eba38df3}, !- Handle
  Surface 3,                              !- Name
  Wall,                                   !- Surface Type
  ,                                       !- Construction Name
  {a521cd2c-32c2-4a23-a532-cee785ef3e19}, !- Space Name
  Surface,                                !- Outside Boundary Condition
  {87022c27-8f70-498b-bacf-447aee83f002}, !- Outside Boundary Condition Object
  NoSun,                                  !- Sun Exposure
  NoWind,                                 !- Wind Exposure
  ,                                       !- View Factor to Ground
  ,                                       !- Number of Vertices
  4.57199999999999, 18.8915149398664, 3.9624, !- X,Y,Z Vertex 1 {m}
  4.57199999999999, 18.8915149398664, 0,  !- X,Y,Z Vertex 2 {m}
  -7.105427357601e-015, 23.4635149398664, 0, !- X,Y,Z Vertex 3 {m}
  -7.105427357601e-015, 23.4635149398664, 3.9624; !- X,Y,Z Vertex 4 {m}

OS:Surface,
  {5f42fe63-7ef6-4b26-ac33-8de0a77511b8}, !- Handle
  Surface 4,                              !- Name
  Wall,                                   !- Surface Type
  ,                                       !- Construction Name
  {a521cd2c-32c2-4a23-a532-cee785ef3e19}, !- Space Name
  Surface,                                !- Outside Boundary Condition
  {56824943-d70c-47d6-a8e9-12ab08d3e5f2}, !- Outside Boundary Condition Object
  NoSun,                                  !- Sun Exposure
  NoWind,                                 !- Wind Exposure
  ,                                       !- View Factor to Ground
  ,                                       !- Number of Vertices
  4.57199999999999, 4.572, 3.9624,        !- X,Y,Z Vertex 1 {m}
  4.57199999999999, 4.572, 0,             !- X,Y,Z Vertex 2 {m}
  4.57199999999999, 18.8915149398664, 0,  !- X,Y,Z Vertex 3 {m}
  4.57199999999999, 18.8915149398664, 3.9624; !- X,Y,Z Vertex 4 {m}

OS:Surface,
  {97d80928-b875-4252-9fe7-90e213aac3dc}, !- Handle
  Surface 5,                              !- Name
  Wall,                                   !- Surface Type
  ,                                       !- Construction Name
  {a521cd2c-32c2-4a23-a532-cee785ef3e19}, !- Space Name
  Surface,                                !- Outside Boundary Condition
  {c37c276b-48c3-4b7f-af6c-45907f5d0a2b}, !- Outside Boundary Condition Object
  NoSun,                                  !- Sun Exposure
  NoWind,                                 !- Wind Exposure
  ,                                       !- View Factor to Ground
  ,                                       !- Number of Vertices
  -7.105427357601e-015, -3.5527136788005e-015, 3.9624, !- X,Y,Z Vertex 1 {m}
  -7.105427357601e-015, -3.5527136788005e-015, 0, !- X,Y,Z Vertex 2 {m}
  4.57199999999999, 4.572, 0,             !- X,Y,Z Vertex 3 {m}
  4.57199999999999, 4.572, 3.9624;        !- X,Y,Z Vertex 4 {m}

OS:Surface,
  {b4f26c2d-b572-4e3e-8ed4-ce7b802f9bde}, !- Handle
  Surface 6,                              !- Name
  RoofCeiling,                            !- Surface Type
  ,                                       !- Construction Name
  {a521cd2c-32c2-4a23-a532-cee785ef3e19}, !- Space Name
  Adiabatic,                              !- Outside Boundary Condition
  ,                                       !- Outside Boundary Condition Object
  NoSun,                                  !- Sun Exposure
  NoWind,                                 !- Wind Exposure
  ,                                       !- View Factor to Ground
  ,                                       !- Number of Vertices
  4.57199999999999, 4.572, 3.9624,        !- X,Y,Z Vertex 1 {m}
  4.57199999999999, 18.8915149398664, 3.9624, !- X,Y,Z Vertex 2 {m}
  -7.105427357601e-015, 23.4635149398664, 3.9624, !- X,Y,Z Vertex 3 {m}
  -7.105427357601e-015, -3.5527136788005e-015, 3.9624; !- X,Y,Z Vertex 4 {m}

OS:ThermalZone,
  {e0af4fe0-ef29-4209-a194-dc3076f94117}, !- Handle
  Zone West Perimeter Space - Story Ground, !- Name
  1,                                      !- Multiplier
  ,                                       !- Ceiling Height {m}
  ,                                       !- Volume {m3}
  ,                                       !- Floor Area {m2}
  ,                                       !- Zone Inside Convection Algorithm
  ,                                       !- Zone Outside Convection Algorithm
  ,                                       !- Zone Conditioning Equipment List Name
  {aa3e1964-dd97-4686-98cf-63d97291bac3}, !- Zone Air Inlet Port List
  {aa0f0858-f9d7-4a73-b11c-afc5841edaa9}, !- Zone Air Exhaust Port List
  {3c8e6fe3-f29a-4a70-86ff-61536a676a99}, !- Zone Air Node Name
  {0f323fc8-cf83-4eec-a515-26c92a7cf972}, !- Zone Return Air Port List
  ,                                       !- Primary Daylighting Control Name
  ,                                       !- Fraction of Zone Controlled by Primary Daylighting Control
  ,                                       !- Secondary Daylighting Control Name
  ,                                       !- Fraction of Zone Controlled by Secondary Daylighting Control
  ,                                       !- Illuminance Map Name
  ,                                       !- Group Rendering Name
  ,                                       !- Thermostat Name
  No;                                     !- Use Ideal Air Loads

OS:Node,
  {d70938f4-48a5-47c8-92a7-ba22978d19a6}, !- Handle
  Node 1,                                 !- Name
  {3c8e6fe3-f29a-4a70-86ff-61536a676a99}, !- Inlet Port
  ;                                       !- Outlet Port

OS:Connection,
  {3c8e6fe3-f29a-4a70-86ff-61536a676a99}, !- Handle
  {8fd932de-d4ba-49c6-add6-8756e80da775}, !- Name
  {e0af4fe0-ef29-4209-a194-dc3076f94117}, !- Source Object
  11,                                     !- Outlet Port
  {d70938f4-48a5-47c8-92a7-ba22978d19a6}, !- Target Object
  2;                                      !- Inlet Port

OS:PortList,
  {aa3e1964-dd97-4686-98cf-63d97291bac3}, !- Handle
  {14c41da0-796d-42e8-91a2-e8d3f5332ab7}, !- Name
  {e0af4fe0-ef29-4209-a194-dc3076f94117}; !- HVAC Component

OS:PortList,
  {aa0f0858-f9d7-4a73-b11c-afc5841edaa9}, !- Handle
  {9e3d83eb-0640-466d-b4ba-403a94049c54}, !- Name
  {e0af4fe0-ef29-4209-a194-dc3076f94117}; !- HVAC Component

OS:PortList,
  {0f323fc8-cf83-4eec-a515-26c92a7cf972}, !- Handle
  {76552114-0215-4fb0-8a98-40f5aa13d42e}, !- Name
  {e0af4fe0-ef29-4209-a194-dc3076f94117}; !- HVAC Component

OS:Sizing:Zone,
  {4aae4881-b2b1-4941-a87c-f0b3321eb593}, !- Handle
  {e0af4fe0-ef29-4209-a194-dc3076f94117}, !- Zone or ZoneList Name
  SupplyAirTemperature,                   !- Zone Cooling Design Supply Air Temperature Input Method
  14,                                     !- Zone Cooling Design Supply Air Temperature {C}
  11.11,                                  !- Zone Cooling Design Supply Air Temperature Difference {deltaC}
  SupplyAirTemperature,                   !- Zone Heating Design Supply Air Temperature Input Method
  40,                                     !- Zone Heating Design Supply Air Temperature {C}
  11.11,                                  !- Zone Heating Design Supply Air Temperature Difference {deltaC}
  0.0085,                                 !- Zone Cooling Design Supply Air Humidity Ratio {kg-H2O/kg-air}
  0.008,                                  !- Zone Heating Design Supply Air Humidity Ratio {kg-H2O/kg-air}
  ,                                       !- Zone Heating Sizing Factor
  ,                                       !- Zone Cooling Sizing Factor
  DesignDay,                              !- Cooling Design Air Flow Method
  ,                                       !- Cooling Design Air Flow Rate {m3/s}
  ,                                       !- Cooling Minimum Air Flow per Zone Floor Area {m3/s-m2}
  ,                                       !- Cooling Minimum Air Flow {m3/s}
  ,                                       !- Cooling Minimum Air Flow Fraction
  DesignDay,                              !- Heating Design Air Flow Method
  ,                                       !- Heating Design Air Flow Rate {m3/s}
  ,                                       !- Heating Maximum Air Flow per Zone Floor Area {m3/s-m2}
  ,                                       !- Heating Maximum Air Flow {m3/s}
  ,                                       !- Heating Maximum Air Flow Fraction
  ,                                       !- Design Zone Air Distribution Effectiveness in Cooling Mode
  ,                                       !- Design Zone Air Distribution Effectiveness in Heating Mode
  No,                                     !- Account for Dedicated Outdoor Air System
  NeutralSupplyAir,                       !- Dedicated Outdoor Air System Control Strategy
  autosize,                               !- Dedicated Outdoor Air Low Setpoint Temperature for Design {C}
  autosize;                               !- Dedicated Outdoor Air High Setpoint Temperature for Design {C}

OS:ZoneHVAC:EquipmentList,
  {3f328ba1-bf9f-4a28-9bff-7d089412944d}, !- Handle
  Zone HVAC Equipment List 1,             !- Name
  {e0af4fe0-ef29-4209-a194-dc3076f94117}; !- Thermal Zone

OS:Space,
  {276ab9d4-0f46-4e1c-86d9-836dc5e4325b}, !- Handle
  North Perimeter Space - Story Ground,   !- Name
  ,                                       !- Space Type Name
  ,                                       !- Default Construction Set Name
  ,                                       !- Default Schedule Set Name
  -0,                                     !- Direction of Relative North {deg}
  -17.5976362048998,                      !- X Origin {m}
  11.7317574699332,                       !- Y Origin {m}
  0,                                      !- Z Origin {m}
  {b7473906-aa4e-4674-ba27-b5e71ca2a620}, !- Building Story Name
  {9c5fab0b-f59e-4483-b143-02c94bfe6cfb}; !- Thermal Zone Name

OS:Surface,
  {f2cbb3fa-80f4-4ebe-b6c1-548d37a5c123}, !- Handle
  Surface 7,                              !- Name
  Floor,                                  !- Surface Type
  ,                                       !- Construction Name
  {276ab9d4-0f46-4e1c-86d9-836dc5e4325b}, !- Space Name
  Adiabatic,                              !- Outside Boundary Condition
  ,                                       !- Outside Boundary Condition Object
  NoSun,                                  !- Sun Exposure
  NoWind,                                 !- Wind Exposure
  ,                                       !- View Factor to Ground
  ,                                       !- Number of Vertices
  -7.105427357601e-015, 3.5527136788005e-015, 0, !- X,Y,Z Vertex 1 {m}
  35.1952724097996, 3.5527136788005e-015, 0, !- X,Y,Z Vertex 2 {m}
  30.6232724097996, -4.572, 0,            !- X,Y,Z Vertex 3 {m}
  4.57199999999999, -4.572, 0;            !- X,Y,Z Vertex 4 {m}

OS:Surface,
  {fdcdf1de-5cb6-4336-b77b-8f97bf9fc2e4}, !- Handle
  Surface 8,                              !- Name
  Wall,                                   !- Surface Type
  ,                                       !- Construction Name
  {276ab9d4-0f46-4e1c-86d9-836dc5e4325b}, !- Space Name
  Outdoors,                               !- Outside Boundary Condition
  ,                                       !- Outside Boundary Condition Object
  SunExposed,                             !- Sun Exposure
  WindExposed,                            !- Wind Exposure
  ,                                       !- View Factor to Ground
  ,                                       !- Number of Vertices
  35.1952724097996, 3.5527136788005e-015, 3.9624, !- X,Y,Z Vertex 1 {m}
  35.1952724097996, 3.5527136788005e-015, 0, !- X,Y,Z Vertex 2 {m}
  -7.105427357601e-015, 3.5527136788005e-015, 0, !- X,Y,Z Vertex 3 {m}
  -7.105427357601e-015, 3.5527136788005e-015, 3.9624; !- X,Y,Z Vertex 4 {m}

OS:Surface,
  {e3c635c2-1742-489f-8bad-2593e060262c}, !- Handle
  Surface 9,                              !- Name
  Wall,                                   !- Surface Type
  ,                                       !- Construction Name
  {276ab9d4-0f46-4e1c-86d9-836dc5e4325b}, !- Space Name
  Surface,                                !- Outside Boundary Condition
  {df89a252-f064-4c04-87aa-2b18c40eb428}, !- Outside Boundary Condition Object
  NoSun,                                  !- Sun Exposure
  NoWind,                                 !- Wind Exposure
  ,                                       !- View Factor to Ground
  ,                                       !- Number of Vertices
  30.6232724097996, -4.572, 3.9624,       !- X,Y,Z Vertex 1 {m}
  30.6232724097996, -4.572, 0,            !- X,Y,Z Vertex 2 {m}
  35.1952724097996, 3.5527136788005e-015, 0, !- X,Y,Z Vertex 3 {m}
  35.1952724097996, 3.5527136788005e-015, 3.9624; !- X,Y,Z Vertex 4 {m}

OS:Surface,
  {0f3219a6-2c98-44e1-bed4-ab7162272621}, !- Handle
  Surface 10,                             !- Name
  Wall,                                   !- Surface Type
  ,                                       !- Construction Name
  {276ab9d4-0f46-4e1c-86d9-836dc5e4325b}, !- Space Name
  Surface,                                !- Outside Boundary Condition
  {2d2604e4-83fb-44c2-96a4-9c47c0e42809}, !- Outside Boundary Condition Object
  NoSun,                                  !- Sun Exposure
  NoWind,                                 !- Wind Exposure
  ,                                       !- View Factor to Ground
  ,                                       !- Number of Vertices
  4.57199999999999, -4.572, 3.9624,       !- X,Y,Z Vertex 1 {m}
  4.57199999999999, -4.572, 0,            !- X,Y,Z Vertex 2 {m}
  30.6232724097996, -4.572, 0,            !- X,Y,Z Vertex 3 {m}
  30.6232724097996, -4.572, 3.9624;       !- X,Y,Z Vertex 4 {m}

OS:Surface,
  {87022c27-8f70-498b-bacf-447aee83f002}, !- Handle
  Surface 11,                             !- Name
  Wall,                                   !- Surface Type
  ,                                       !- Construction Name
  {276ab9d4-0f46-4e1c-86d9-836dc5e4325b}, !- Space Name
  Surface,                                !- Outside Boundary Condition
  {d46fb88c-2eff-4781-9609-4ca9eba38df3}, !- Outside Boundary Condition Object
  NoSun,                                  !- Sun Exposure
  NoWind,                                 !- Wind Exposure
  ,                                       !- View Factor to Ground
  ,                                       !- Number of Vertices
  -7.105427357601e-015, 3.5527136788005e-015, 3.9624, !- X,Y,Z Vertex 1 {m}
  -7.105427357601e-015, 3.5527136788005e-015, 0, !- X,Y,Z Vertex 2 {m}
  4.57199999999999, -4.572, 0,            !- X,Y,Z Vertex 3 {m}
  4.57199999999999, -4.572, 3.9624;       !- X,Y,Z Vertex 4 {m}

OS:Surface,
  {81aa1993-b975-4f14-975a-763150a180b8}, !- Handle
  Surface 12,                             !- Name
  RoofCeiling,                            !- Surface Type
  ,                                       !- Construction Name
  {276ab9d4-0f46-4e1c-86d9-836dc5e4325b}, !- Space Name
  Adiabatic,                              !- Outside Boundary Condition
  ,                                       !- Outside Boundary Condition Object
  NoSun,                                  !- Sun Exposure
  NoWind,                                 !- Wind Exposure
  ,                                       !- View Factor to Ground
  ,                                       !- Number of Vertices
  4.57199999999999, -4.572, 3.9624,       !- X,Y,Z Vertex 1 {m}
  30.6232724097996, -4.572, 3.9624,       !- X,Y,Z Vertex 2 {m}
  35.1952724097996, 3.5527136788005e-015, 3.9624, !- X,Y,Z Vertex 3 {m}
  -7.105427357601e-015, 3.5527136788005e-015, 3.9624; !- X,Y,Z Vertex 4 {m}

OS:ThermalZone,
  {9c5fab0b-f59e-4483-b143-02c94bfe6cfb}, !- Handle
  Zone North Perimeter Space - Story Ground, !- Name
  1,                                      !- Multiplier
  ,                                       !- Ceiling Height {m}
  ,                                       !- Volume {m3}
  ,                                       !- Floor Area {m2}
  ,                                       !- Zone Inside Convection Algorithm
  ,                                       !- Zone Outside Convection Algorithm
  ,                                       !- Zone Conditioning Equipment List Name
  {11c16dc8-d99f-4199-acad-b58adb0db82e}, !- Zone Air Inlet Port List
  {6eb92855-e835-4c63-aa8c-8e048df6af41}, !- Zone Air Exhaust Port List
  {0eec484a-d5c2-437e-bf33-a2356c0ed1b4}, !- Zone Air Node Name
  {d320b693-7596-4ed8-a50e-ca8505613ca9}, !- Zone Return Air Port List
  ,                                       !- Primary Daylighting Control Name
  ,                                       !- Fraction of Zone Controlled by Primary Daylighting Control
  ,                                       !- Secondary Daylighting Control Name
  ,                                       !- Fraction of Zone Controlled by Secondary Daylighting Control
  ,                                       !- Illuminance Map Name
  ,                                       !- Group Rendering Name
  ,                                       !- Thermostat Name
  No;                                     !- Use Ideal Air Loads

OS:Node,
  {c0eca98e-bf8d-4aa7-b8c6-09d4b2084f2d}, !- Handle
  Node 2,                                 !- Name
  {0eec484a-d5c2-437e-bf33-a2356c0ed1b4}, !- Inlet Port
  ;                                       !- Outlet Port

OS:Connection,
  {0eec484a-d5c2-437e-bf33-a2356c0ed1b4}, !- Handle
  {0db546dc-ec9b-4594-89ca-2ae4310500dd}, !- Name
  {9c5fab0b-f59e-4483-b143-02c94bfe6cfb}, !- Source Object
  11,                                     !- Outlet Port
  {c0eca98e-bf8d-4aa7-b8c6-09d4b2084f2d}, !- Target Object
  2;                                      !- Inlet Port

OS:PortList,
  {11c16dc8-d99f-4199-acad-b58adb0db82e}, !- Handle
  {dad76f70-a201-432d-8020-2a9eebd6b10a}, !- Name
  {9c5fab0b-f59e-4483-b143-02c94bfe6cfb}; !- HVAC Component

OS:PortList,
  {6eb92855-e835-4c63-aa8c-8e048df6af41}, !- Handle
  {7846ec62-c0fe-4d74-b09a-11c50a1d9a82}, !- Name
  {9c5fab0b-f59e-4483-b143-02c94bfe6cfb}; !- HVAC Component

OS:PortList,
  {d320b693-7596-4ed8-a50e-ca8505613ca9}, !- Handle
  {022aa8c9-7110-4e27-9bdc-23237ce8fcfc}, !- Name
  {9c5fab0b-f59e-4483-b143-02c94bfe6cfb}; !- HVAC Component

OS:Sizing:Zone,
  {43518e1f-ce69-4d3b-ae44-a3630ae8e2b4}, !- Handle
  {9c5fab0b-f59e-4483-b143-02c94bfe6cfb}, !- Zone or ZoneList Name
  SupplyAirTemperature,                   !- Zone Cooling Design Supply Air Temperature Input Method
  14,                                     !- Zone Cooling Design Supply Air Temperature {C}
  11.11,                                  !- Zone Cooling Design Supply Air Temperature Difference {deltaC}
  SupplyAirTemperature,                   !- Zone Heating Design Supply Air Temperature Input Method
  40,                                     !- Zone Heating Design Supply Air Temperature {C}
  11.11,                                  !- Zone Heating Design Supply Air Temperature Difference {deltaC}
  0.0085,                                 !- Zone Cooling Design Supply Air Humidity Ratio {kg-H2O/kg-air}
  0.008,                                  !- Zone Heating Design Supply Air Humidity Ratio {kg-H2O/kg-air}
  ,                                       !- Zone Heating Sizing Factor
  ,                                       !- Zone Cooling Sizing Factor
  DesignDay,                              !- Cooling Design Air Flow Method
  ,                                       !- Cooling Design Air Flow Rate {m3/s}
  ,                                       !- Cooling Minimum Air Flow per Zone Floor Area {m3/s-m2}
  ,                                       !- Cooling Minimum Air Flow {m3/s}
  ,                                       !- Cooling Minimum Air Flow Fraction
  DesignDay,                              !- Heating Design Air Flow Method
  ,                                       !- Heating Design Air Flow Rate {m3/s}
  ,                                       !- Heating Maximum Air Flow per Zone Floor Area {m3/s-m2}
  ,                                       !- Heating Maximum Air Flow {m3/s}
  ,                                       !- Heating Maximum Air Flow Fraction
  ,                                       !- Design Zone Air Distribution Effectiveness in Cooling Mode
  ,                                       !- Design Zone Air Distribution Effectiveness in Heating Mode
  No,                                     !- Account for Dedicated Outdoor Air System
  NeutralSupplyAir,                       !- Dedicated Outdoor Air System Control Strategy
  autosize,                               !- Dedicated Outdoor Air Low Setpoint Temperature for Design {C}
  autosize;                               !- Dedicated Outdoor Air High Setpoint Temperature for Design {C}

OS:ZoneHVAC:EquipmentList,
  {0eadfd1a-fb73-4464-a189-284c4237e8b3}, !- Handle
  Zone HVAC Equipment List 2,             !- Name
  {9c5fab0b-f59e-4483-b143-02c94bfe6cfb}; !- Thermal Zone

OS:Space,
  {f3fda3d5-714d-4e29-bbb9-4338504cfeaf}, !- Handle
  East Perimeter Space - Story Ground,    !- Name
  ,                                       !- Space Type Name
  ,                                       !- Default Construction Set Name
  ,                                       !- Default Schedule Set Name
  -0,                                     !- Direction of Relative North {deg}
  17.5976362048998,                       !- X Origin {m}
  11.7317574699332,                       !- Y Origin {m}
  0,                                      !- Z Origin {m}
  {b7473906-aa4e-4674-ba27-b5e71ca2a620}, !- Building Story Name
  {5fc98262-8f88-4e9a-baa8-133b40e3b5d3}; !- Thermal Zone Name

OS:Surface,
  {40641dce-a86a-4246-94ca-129ed7095e7a}, !- Handle
  Surface 13,                             !- Name
  Floor,                                  !- Surface Type
  ,                                       !- Construction Name
  {f3fda3d5-714d-4e29-bbb9-4338504cfeaf}, !- Space Name
  Adiabatic,                              !- Outside Boundary Condition
  ,                                       !- Outside Boundary Condition Object
  NoSun,                                  !- Sun Exposure
  NoWind,                                 !- Wind Exposure
  ,                                       !- View Factor to Ground
  ,                                       !- Number of Vertices
  7.105427357601e-015, 3.5527136788005e-015, 0, !- X,Y,Z Vertex 1 {m}
  7.105427357601e-015, -23.4635149398664, 0, !- X,Y,Z Vertex 2 {m}
  -4.57199999999999, -18.8915149398664, 0, !- X,Y,Z Vertex 3 {m}
  -4.57199999999999, -4.572, 0;           !- X,Y,Z Vertex 4 {m}

OS:Surface,
  {ae085335-cdee-4c88-b81c-70fe3ff3409b}, !- Handle
  Surface 14,                             !- Name
  Wall,                                   !- Surface Type
  ,                                       !- Construction Name
  {f3fda3d5-714d-4e29-bbb9-4338504cfeaf}, !- Space Name
  Outdoors,                               !- Outside Boundary Condition
  ,                                       !- Outside Boundary Condition Object
  SunExposed,                             !- Sun Exposure
  WindExposed,                            !- Wind Exposure
  ,                                       !- View Factor to Ground
  ,                                       !- Number of Vertices
  7.105427357601e-015, -23.4635149398664, 3.9624, !- X,Y,Z Vertex 1 {m}
  7.105427357601e-015, -23.4635149398664, 0, !- X,Y,Z Vertex 2 {m}
  7.105427357601e-015, 3.5527136788005e-015, 0, !- X,Y,Z Vertex 3 {m}
  7.105427357601e-015, 3.5527136788005e-015, 3.9624; !- X,Y,Z Vertex 4 {m}

OS:Surface,
  {4a4d310b-33db-4b39-b7c0-f0a4eea5eb4f}, !- Handle
  Surface 15,                             !- Name
  Wall,                                   !- Surface Type
  ,                                       !- Construction Name
  {f3fda3d5-714d-4e29-bbb9-4338504cfeaf}, !- Space Name
  Surface,                                !- Outside Boundary Condition
  {0f6563db-f717-4cd4-9f5e-749453c3fa19}, !- Outside Boundary Condition Object
  NoSun,                                  !- Sun Exposure
  NoWind,                                 !- Wind Exposure
  ,                                       !- View Factor to Ground
  ,                                       !- Number of Vertices
  -4.57199999999999, -18.8915149398664, 3.9624, !- X,Y,Z Vertex 1 {m}
  -4.57199999999999, -18.8915149398664, 0, !- X,Y,Z Vertex 2 {m}
  7.105427357601e-015, -23.4635149398664, 0, !- X,Y,Z Vertex 3 {m}
  7.105427357601e-015, -23.4635149398664, 3.9624; !- X,Y,Z Vertex 4 {m}

OS:Surface,
  {fe0fba79-366d-45c6-9992-73e14fc5a41b}, !- Handle
  Surface 16,                             !- Name
  Wall,                                   !- Surface Type
  ,                                       !- Construction Name
  {f3fda3d5-714d-4e29-bbb9-4338504cfeaf}, !- Space Name