
OS:Version,
  {6a0b5ae6-b7e0-440d-a693-1b50a165c075}, !- Handle
  2.7.2;                                  !- Version Identifier

OS:SpaceType,
  {c1fc7dfd-4597-4dc8-b6d1-f75bc073dade}, !- Handle
  Office WholeBuilding - Md Office,       !- Name
  ,                                       !- Default Construction Set Name
  ,                                       !- Default Schedule Set Name
  {4b65448e-e527-44d1-b21f-e96d930aa4b9}, !- Group Rendering Name
  ,                                       !- Design Specification Outdoor Air Object Name
  ,                                       !- Standards Template
  Office,                                 !- Standards Building Type
  WholeBuilding - Md Office;              !- Standards Space Type

OS:Rendering:Color,
  {4b65448e-e527-44d1-b21f-e96d930aa4b9}, !- Handle
  Office WholeBuilding - Md Office,       !- Name
  120,                                    !- Rendering Red Value
  230,                                    !- Rendering Green Value
  199;                                    !- Rendering Blue Value

OS:Building,
  {ddee6a6a-8dcd-41fc-83ee-d37b4485ed19}, !- Handle
  90.1-2004|MediumOffice,                 !- Name
  ,                                       !- Building Sector Type
  ,                                       !- North Axis {deg}
  ,                                       !- Nominal Floor to Floor Height {m}
  {c1fc7dfd-4597-4dc8-b6d1-f75bc073dade}, !- Space Type Name
  ,                                       !- Default Construction Set Name
  ;                                       !- Default Schedule Set Name

OS:Site,
  {8786a75b-6a94-465d-a94e-b0953a74ac54}, !- Handle
  Site 1,                                 !- Name
  ,                                       !- Latitude {deg}
  ,                                       !- Longitude {deg}
  ,                                       !- Time Zone {hr}
  ,                                       !- Elevation {m}
  ;                                       !- Terrain

OS:BuildingStory,
  {4bc744c2-89fa-43ca-a422-447da7b3cbf9}, !- Handle
  Story Ground,                           !- Name
  0,                                      !- Nominal Z Coordinate {m}
  3.9624,                                 !- Nominal Floor to Floor Height {m}
  ,                                       !- Default Construction Set Name
  ,                                       !- Default Schedule Set Name
  ;                                       !- Group Rendering Name

OS:Space,
  {5aada87a-9b60-46ec-af86-8ce3b27c3013}, !- Handle
  West Perimeter Space - Story Ground,    !- Name
  ,                                       !- Space Type Name
  ,                                       !- Default Construction Set Name
  ,                                       !- Default Schedule Set Name
  -0,                                     !- Direction of Relative North {deg}
  -17.5976362048998,                      !- X Origin {m}
  -11.7317574699332,                      !- Y Origin {m}
  0,                                      !- Z Origin {m}
  {4bc744c2-89fa-43ca-a422-447da7b3cbf9}, !- Building Story Name
  {886fe29f-abc0-49c9-b962-95c4895f7f1f}; !- Thermal Zone Name

OS:Surface,
  {f042567e-3e7c-40f4-bf73-4246fa97d955}, !- Handle
  Surface 1,                              !- Name
  Floor,                                  !- Surface Type
  ,                                       !- Construction Name
  {5aada87a-9b60-46ec-af86-8ce3b27c3013}, !- Space Name
  Adiabatic,                              !- Outside Boundary Condition
  ,                                       !- Outside Boundary Condition Object
  NoSun,                                  !- Sun Exposure
  NoWind,                                 !- Wind Exposure
  ,                                       !- View Factor to Ground
  ,                                       !- Number of Vertices
  -7.105427357601e-015, -3.5527136788005e-015, 0, !- X,Y,Z Vertex 1 {m}
  -7.105427357601e-015, 23.4635149398664, 0, !- X,Y,Z Vertex 2 {m}
  4.57199999999999, 18.8915149398664, 0,  !- X,Y,Z Vertex 3 {m}
  4.57199999999999, 4.572, 0;             !- X,Y,Z Vertex 4 {m}

OS:Surface,
  {e030e00e-cf8c-4344-9369-3bb7db6f3ae1}, !- Handle
  Surface 2,                              !- Name
  Wall,                                   !- Surface Type
  ,                                       !- Construction Name
  {5aada87a-9b60-46ec-af86-8ce3b27c3013}, !- Space Name
  Outdoors,                               !- Outside Boundary Condition
  ,                                       !- Outside Boundary Condition Object
  SunExposed,                             !- Sun Exposure
  WindExposed,                            !- Wind Exposure
  ,                                       !- View Factor to Ground
  ,                                       !- Number of Vertices
  -7.105427357601e-015, 23.4635149398664, 3.9624, !- X,Y,Z Vertex 1 {m}
  -7.105427357601e-015, 23.4635149398664, 0, !- X,Y,Z Vertex 2 {m}
  -7.105427357601e-015, -3.5527136788005e-015, 0, !- X,Y,Z Vertex 3 {m}
  -7.105427357601e-015, -3.5527136788005e-015, 3.9624; !- X,Y,Z Vertex 4 {m}

OS:Surface,
  {61711073-60b0-40e0-bd1a-f859c9b19225}, !- Handle
  Surface 3,                              !- Name
  Wall,                                   !- Surface Type
  ,                                       !- Construction Name
  {5aada87a-9b60-46ec-af86-8ce3b27c3013}, !- Space Name
  Surface,                                !- Outside Boundary Condition
  {d67192ae-a836-4f50-a37c-5fb17a214322}, !- Outside Boundary Condition Object
  NoSun,                                  !- Sun Exposure
  NoWind,                                 !- Wind Exposure
  ,                                       !- View Factor to Ground
  ,                                       !- Number of Vertices
  4.57199999999999, 18.8915149398664, 3.9624, !- X,Y,Z Vertex 1 {m}
  4.57199999999999, 18.8915149398664, 0,  !- X,Y,Z Vertex 2 {m}
  -7.105427357601e-015, 23.4635149398664, 0, !- X,Y,Z Vertex 3 {m}
  -7.105427357601e-015, 23.4635149398664, 3.9624; !- X,Y,Z Vertex 4 {m}

OS:Surface,
  {3eabb708-4200-4c07-bb67-9b6e03cc9413}, !- Handle
  Surface 4,                              !- Name
  Wall,                                   !- Surface Type
  ,                                       !- Construction Name
  {5aada87a-9b60-46ec-af86-8ce3b27c3013}, !- Space Name
  Surface,                                !- Outside Boundary Condition
  {ef8f4c2c-6a60-419e-98a2-40ed71e6d196}, !- Outside Boundary Condition Object
  NoSun,                                  !- Sun Exposure
  NoWind,                                 !- Wind Exposure
  ,                                       !- View Factor to Ground
  ,                                       !- Number of Vertices
  4.57199999999999, 4.572, 3.9624,        !- X,Y,Z Vertex 1 {m}
  4.57199999999999, 4.572, 0,             !- X,Y,Z Vertex 2 {m}
  4.57199999999999, 18.8915149398664, 0,  !- X,Y,Z Vertex 3 {m}
  4.57199999999999, 18.8915149398664, 3.9624; !- X,Y,Z Vertex 4 {m}

OS:Surface,
  {e8892287-85dd-4401-8dac-6dde42792e82}, !- Handle
  Surface 5,                              !- Name
  Wall,                                   !- Surface Type
  ,                                       !- Construction Name
  {5aada87a-9b60-46ec-af86-8ce3b27c3013}, !- Space Name
  Surface,                                !- Outside Boundary Condition
  {821a2ad5-9f50-4484-86e0-8a7cc163cf1c}, !- Outside Boundary Condition Object
  NoSun,                                  !- Sun Exposure
  NoWind,                                 !- Wind Exposure
  ,                                       !- View Factor to Ground
  ,                                       !- Number of Vertices
  -7.105427357601e-015, -3.5527136788005e-015, 3.9624, !- X,Y,Z Vertex 1 {m}
  -7.105427357601e-015, -3.5527136788005e-015, 0, !- X,Y,Z Vertex 2 {m}
  4.57199999999999, 4.572, 0,             !- X,Y,Z Vertex 3 {m}
  4.57199999999999, 4.572, 3.9624;        !- X,Y,Z Vertex 4 {m}

OS:Surface,
  {94113e55-5aa1-4942-9608-b2d8a55aec56}, !- Handle
  Surface 6,                              !- Name
  RoofCeiling,                            !- Surface Type
  ,                                       !- Construction Name
  {5aada87a-9b60-46ec-af86-8ce3b27c3013}, !- Space Name
  Adiabatic,                              !- Outside Boundary Condition
  ,                                       !- Outside Boundary Condition Object
  NoSun,                                  !- Sun Exposure
  NoWind,                                 !- Wind Exposure
  ,                                       !- View Factor to Ground
  ,                                       !- Number of Vertices
  4.57199999999999, 4.572, 3.9624,        !- X,Y,Z Vertex 1 {m}
  4.57199999999999, 18.8915149398664, 3.9624, !- X,Y,Z Vertex 2 {m}
  -7.105427357601e-015, 23.4635149398664, 3.9624, !- X,Y,Z Vertex 3 {m}
  -7.105427357601e-015, -3.5527136788005e-015, 3.9624; !- X,Y,Z Vertex 4 {m}

OS:ThermalZone,
  {886fe29f-abc0-49c9-b962-95c4895f7f1f}, !- Handle
  Zone West Perimeter Space - Story Ground, !- Name
  1,                                      !- Multiplier
  ,                                       !- Ceiling Height {m}
  ,                                       !- Volume {m3}
  ,                                       !- Floor Area {m2}
  ,                                       !- Zone Inside Convection Algorithm
  ,                                       !- Zone Outside Convection Algorithm
  ,                                       !- Zone Conditioning Equipment List Name
  {afeac796-e393-4c5c-8632-828ee11e20e3}, !- Zone Air Inlet Port List
  {e4aa929c-f4c4-4abb-bfdc-d2438bf2cf65}, !- Zone Air Exhaust Port List
  {202af442-1197-440e-9fed-999de849eeb0}, !- Zone Air Node Name
  {af6f1cd2-5852-4c0c-acc1-d2820a90402d}, !- Zone Return Air Port List
  ,                                       !- Primary Daylighting Control Name
  ,                                       !- Fraction of Zone Controlled by Primary Daylighting Control
  ,                                       !- Secondary Daylighting Control Name
  ,                                       !- Fraction of Zone Controlled by Secondary Daylighting Control
  ,                                       !- Illuminance Map Name
  ,                                       !- Group Rendering Name
  ,                                       !- Thermostat Name
  No;                                     !- Use Ideal Air Loads

OS:Node,
  {d06ee522-e26d-482f-a105-0c73bc842453}, !- Handle
  Node 1,                                 !- Name
  {202af442-1197-440e-9fed-999de849eeb0}, !- Inlet Port
  ;                                       !- Outlet Port

OS:Connection,
  {202af442-1197-440e-9fed-999de849eeb0}, !- Handle
  {9b8cfc79-0621-4e54-9c96-07ad60a32f17}, !- Name
  {886fe29f-abc0-49c9-b962-95c4895f7f1f}, !- Source Object
  11,                                     !- Outlet Port
  {d06ee522-e26d-482f-a105-0c73bc842453}, !- Target Object
  2;                                      !- Inlet Port

OS:PortList,
  {afeac796-e393-4c5c-8632-828ee11e20e3}, !- Handle
  {b3195447-c369-439f-8509-4a2797b5968b}, !- Name
  {886fe29f-abc0-49c9-b962-95c4895f7f1f}; !- HVAC Component

OS:PortList,
  {e4aa929c-f4c4-4abb-bfdc-d2438bf2cf65}, !- Handle
  {efedd3dc-05ac-4535-863c-383d56356421}, !- Name
  {886fe29f-abc0-49c9-b962-95c4895f7f1f}; !- HVAC Component

OS:PortList,
  {af6f1cd2-5852-4c0c-acc1-d2820a90402d}, !- Handle
  {dc373cf6-396e-4eca-ba11-01417426cd15}, !- Name
  {886fe29f-abc0-49c9-b962-95c4895f7f1f}; !- HVAC Component

OS:Sizing:Zone,
  {d6057086-1788-4834-b351-db1cfebd8d51}, !- Handle
  {886fe29f-abc0-49c9-b962-95c4895f7f1f}, !- Zone or ZoneList Name
  SupplyAirTemperature,                   !- Zone Cooling Design Supply Air Temperature Input Method
  14,                                     !- Zone Cooling Design Supply Air Temperature {C}
  11.11,                                  !- Zone Cooling Design Supply Air Temperature Difference {deltaC}
  SupplyAirTemperature,                   !- Zone Heating Design Supply Air Temperature Input Method
  40,                                     !- Zone Heating Design Supply Air Temperature {C}
  11.11,                                  !- Zone Heating Design Supply Air Temperature Difference {deltaC}
  0.0085,                                 !- Zone Cooling Design Supply Air Humidity Ratio {kg-H2O/kg-air}
  0.008,                                  !- Zone Heating Design Supply Air Humidity Ratio {kg-H2O/kg-air}
  ,                                       !- Zone Heating Sizing Factor
  ,                                       !- Zone Cooling Sizing Factor
  DesignDay,                              !- Cooling Design Air Flow Method
  ,                                       !- Cooling Design Air Flow Rate {m3/s}
  ,                                       !- Cooling Minimum Air Flow per Zone Floor Area {m3/s-m2}
  ,                                       !- Cooling Minimum Air Flow {m3/s}
  ,                                       !- Cooling Minimum Air Flow Fraction
  DesignDay,                              !- Heating Design Air Flow Method
  ,                                       !- Heating Design Air Flow Rate {m3/s}
  ,                                       !- Heating Maximum Air Flow per Zone Floor Area {m3/s-m2}
  ,                                       !- Heating Maximum Air Flow {m3/s}
  ,                                       !- Heating Maximum Air Flow Fraction
  ,                                       !- Design Zone Air Distribution Effectiveness in Cooling Mode
  ,                                       !- Design Zone Air Distribution Effectiveness in Heating Mode
  No,                                     !- Account for Dedicated Outdoor Air System
  NeutralSupplyAir,                       !- Dedicated Outdoor Air System Control Strategy
  autosize,                               !- Dedicated Outdoor Air Low Setpoint Temperature for Design {C}
  autosize;                               !- Dedicated Outdoor Air High Setpoint Temperature for Design {C}

OS:ZoneHVAC:EquipmentList,
  {0f9bd4cb-dfc0-4592-96ee-13d8b9b581bf}, !- Handle
  Zone HVAC Equipment List 1,             !- Name
  {886fe29f-abc0-49c9-b962-95c4895f7f1f}; !- Thermal Zone

OS:Space,
  {32138333-bf30-4f35-9be9-00602c1dbf61}, !- Handle
  North Perimeter Space - Story Ground,   !- Name
  ,                                       !- Space Type Name
  ,                                       !- Default Construction Set Name
  ,                                       !- Default Schedule Set Name
  -0,                                     !- Direction of Relative North {deg}
  -17.5976362048998,                      !- X Origin {m}
  11.7317574699332,                       !- Y Origin {m}
  0,                                      !- Z Origin {m}
  {4bc744c2-89fa-43ca-a422-447da7b3cbf9}, !- Building Story Name
  {0e26281c-b4fe-4c49-88cc-adcfcaa6ab2f}; !- Thermal Zone Name

OS:Surface,
  {4a13d221-545c-42d7-9b95-0efb24494139}, !- Handle
  Surface 7,                              !- Name
  Floor,                                  !- Surface Type
  ,                                       !- Construction Name
  {32138333-bf30-4f35-9be9-00602c1dbf61}, !- Space Name
  Adiabatic,                              !- Outside Boundary Condition
  ,                                       !- Outside Boundary Condition Object
  NoSun,                                  !- Sun Exposure
  NoWind,                                 !- Wind Exposure
  ,                                       !- View Factor to Ground
  ,                                       !- Number of Vertices
  -7.105427357601e-015, 3.5527136788005e-015, 0, !- X,Y,Z Vertex 1 {m}
  35.1952724097996, 3.5527136788005e-015, 0, !- X,Y,Z Vertex 2 {m}
  30.6232724097996, -4.572, 0,            !- X,Y,Z Vertex 3 {m}
  4.57199999999999, -4.572, 0;            !- X,Y,Z Vertex 4 {m}

OS:Surface,
  {fdbcf441-a503-42e9-9739-59394d4d739e}, !- Handle
  Surface 8,                              !- Name
  Wall,                                   !- Surface Type
  ,                                       !- Construction Name
  {32138333-bf30-4f35-9be9-00602c1dbf61}, !- Space Name
  Outdoors,                               !- Outside Boundary Condition
  ,                                       !- Outside Boundary Condition Object
  SunExposed,                             !- Sun Exposure
  WindExposed,                            !- Wind Exposure
  ,                                       !- View Factor to Ground
  ,                                       !- Number of Vertices
  35.1952724097996, 3.5527136788005e-015, 3.9624, !- X,Y,Z Vertex 1 {m}
  35.1952724097996, 3.5527136788005e-015, 0, !- X,Y,Z Vertex 2 {m}
  -7.105427357601e-015, 3.5527136788005e-015, 0, !- X,Y,Z Vertex 3 {m}
  -7.105427357601e-015, 3.5527136788005e-015, 3.9624; !- X,Y,Z Vertex 4 {m}

OS:Surface,
  {3cd70ec3-f47a-4896-9353-c095394e6f50}, !- Handle
  Surface 9,                              !- Name
  Wall,                                   !- Surface Type
  ,                                       !- Construction Name
  {32138333-bf30-4f35-9be9-00602c1dbf61}, !- Space Name
  Surface,                                !- Outside Boundary Condition
  {6e710ed7-8aa4-4a8e-8d08-f0fd7db5a6a1}, !- Outside Boundary Condition Object
  NoSun,                                  !- Sun Exposure
  NoWind,                                 !- Wind Exposure
  ,                                       !- View Factor to Ground
  ,                                       !- Number of Vertices
  30.6232724097996, -4.572, 3.9624,       !- X,Y,Z Vertex 1 {m}
  30.6232724097996, -4.572, 0,            !- X,Y,Z Vertex 2 {m}
  35.1952724097996, 3.5527136788005e-015, 0, !- X,Y,Z Vertex 3 {m}
  35.1952724097996, 3.5527136788005e-015, 3.9624; !- X,Y,Z Vertex 4 {m}

OS:Surface,
  {d98c8b64-0fbd-4e73-9650-1f7eabf59474}, !- Handle
  Surface 10,                             !- Name
  Wall,                                   !- Surface Type
  ,                                       !- Construction Name
  {32138333-bf30-4f35-9be9-00602c1dbf61}, !- Space Name
  Surface,                                !- Outside Boundary Condition
  {5381fad8-2d3b-4411-b2f0-010afab3c523}, !- Outside Boundary Condition Object
  NoSun,                                  !- Sun Exposure
  NoWind,                                 !- Wind Exposure
  ,                                       !- View Factor to Ground
  ,                                       !- Number of Vertices
  4.57199999999999, -4.572, 3.9624,       !- X,Y,Z Vertex 1 {m}
  4.57199999999999, -4.572, 0,            !- X,Y,Z Vertex 2 {m}
  30.6232724097996, -4.572, 0,            !- X,Y,Z Vertex 3 {m}
  30.6232724097996, -4.572, 3.9624;       !- X,Y,Z Vertex 4 {m}

OS:Surface,
  {d67192ae-a836-4f50-a37c-5fb17a214322}, !- Handle
  Surface 11,                             !- Name
  Wall,                                   !- Surface Type
  ,                                       !- Construction Name
  {32138333-bf30-4f35-9be9-00602c1dbf61}, !- Space Name
  Surface,                                !- Outside Boundary Condition
  {61711073-60b0-40e0-bd1a-f859c9b19225}, !- Outside Boundary Condition Object
  NoSun,                                  !- Sun Exposure
  NoWind,                                 !- Wind Exposure
  ,                                       !- View Factor to Ground
  ,                                       !- Number of Vertices
  -7.105427357601e-015, 3.5527136788005e-015, 3.9624, !- X,Y,Z Vertex 1 {m}
  -7.105427357601e-015, 3.5527136788005e-015, 0, !- X,Y,Z Vertex 2 {m}
  4.57199999999999, -4.572, 0,            !- X,Y,Z Vertex 3 {m}
  4.57199999999999, -4.572, 3.9624;       !- X,Y,Z Vertex 4 {m}

OS:Surface,
  {6f4f4cae-faf0-4311-b117-b93f20cf0057}, !- Handle
  Surface 12,                             !- Name
  RoofCeiling,                            !- Surface Type
  ,                                       !- Construction Name
  {32138333-bf30-4f35-9be9-00602c1dbf61}, !- Space Name
  Adiabatic,                              !- Outside Boundary Condition
  ,                                       !- Outside Boundary Condition Object
  NoSun,                                  !- Sun Exposure
  NoWind,                                 !- Wind Exposure
  ,                                       !- View Factor to Ground
  ,                                       !- Number of Vertices
  4.57199999999999, -4.572, 3.9624,       !- X,Y,Z Vertex 1 {m}
  30.6232724097996, -4.572, 3.9624,       !- X,Y,Z Vertex 2 {m}
  35.1952724097996, 3.5527136788005e-015, 3.9624, !- X,Y,Z Vertex 3 {m}
  -7.105427357601e-015, 3.5527136788005e-015, 3.9624; !- X,Y,Z Vertex 4 {m}

OS:ThermalZone,
  {0e26281c-b4fe-4c49-88cc-adcfcaa6ab2f}, !- Handle
  Zone North Perimeter Space - Story Ground, !- Name
  1,                                      !- Multiplier
  ,                                       !- Ceiling Height {m}
  ,                                       !- Volume {m3}
  ,                                       !- Floor Area {m2}
  ,                                       !- Zone Inside Convection Algorithm
  ,                                       !- Zone Outside Convection Algorithm
  ,                                       !- Zone Conditioning Equipment List Name
  {61ddbb82-c5df-4588-81ec-b5db659ec8d6}, !- Zone Air Inlet Port List
  {09e293fe-0353-4b14-ba4e-5ef621fafa17}, !- Zone Air Exhaust Port List
  {8b595ce9-e83b-4338-8fb4-4aacefdd927d}, !- Zone Air Node Name
  {c6a0a401-ef0d-417d-b8dd-8a012857d1d7}, !- Zone Return Air Port List
  ,                                       !- Primary Daylighting Control Name
  ,                                       !- Fraction of Zone Controlled by Primary Daylighting Control
  ,                                       !- Secondary Daylighting Control Name
  ,                                       !- Fraction of Zone Controlled by Secondary Daylighting Control
  ,                                       !- Illuminance Map Name
  ,                                       !- Group Rendering Name
  ,                                       !- Thermostat Name
  No;                                     !- Use Ideal Air Loads

OS:Node,
  {c6058945-43ea-4750-866d-00482a8b7038}, !- Handle
  Node 2,                                 !- Name
  {8b595ce9-e83b-4338-8fb4-4aacefdd927d}, !- Inlet Port
  ;                                       !- Outlet Port

OS:Connection,
  {8b595ce9-e83b-4338-8fb4-4aacefdd927d}, !- Handle
  {04cf417a-9caa-47b0-8ca8-13941685a4ea}, !- Name
  {0e26281c-b4fe-4c49-88cc-adcfcaa6ab2f}, !- Source Object
  11,                                     !- Outlet Port
  {c6058945-43ea-4750-866d-00482a8b7038}, !- Target Object
  2;                                      !- Inlet Port

OS:PortList,
  {61ddbb82-c5df-4588-81ec-b5db659ec8d6}, !- Handle
  {fca9bdc3-82a6-4353-947d-a7e409e64ef2}, !- Name
  {0e26281c-b4fe-4c49-88cc-adcfcaa6ab2f}; !- HVAC Component

OS:PortList,
  {09e293fe-0353-4b14-ba4e-5ef621fafa17}, !- Handle
  {2b794b22-7ccf-4089-977a-53dce2f810f9}, !- Name
  {0e26281c-b4fe-4c49-88cc-adcfcaa6ab2f}; !- HVAC Component

OS:PortList,
  {c6a0a401-ef0d-417d-b8dd-8a012857d1d7}, !- Handle
  {7f655a33-60b1-41c1-b299-e609ab8212bf}, !- Name
  {0e26281c-b4fe-4c49-88cc-adcfcaa6ab2f}; !- HVAC Component

OS:Sizing:Zone,
  {d4260ab6-8183-48d1-a60b-67c071df55c2}, !- Handle
  {0e26281c-b4fe-4c49-88cc-adcfcaa6ab2f}, !- Zone or ZoneList Name
  SupplyAirTemperature,                   !- Zone Cooling Design Supply Air Temperature Input Method
  14,                                     !- Zone Cooling Design Supply Air Temperature {C}
  11.11,                                  !- Zone Cooling Design Supply Air Temperature Difference {deltaC}
  SupplyAirTemperature,                   !- Zone Heating Design Supply Air Temperature Input Method
  40,                                     !- Zone Heating Design Supply Air Temperature {C}
  11.11,                                  !- Zone Heating Design Supply Air Temperature Difference {deltaC}
  0.0085,                                 !- Zone Cooling Design Supply Air Humidity Ratio {kg-H2O/kg-air}
  0.008,                                  !- Zone Heating Design Supply Air Humidity Ratio {kg-H2O/kg-air}
  ,                                       !- Zone Heating Sizing Factor
  ,                                       !- Zone Cooling Sizing Factor
  DesignDay,                              !- Cooling Design Air Flow Method
  ,                                       !- Cooling Design Air Flow Rate {m3/s}
  ,                                       !- Cooling Minimum Air Flow per Zone Floor Area {m3/s-m2}
  ,                                       !- Cooling Minimum Air Flow {m3/s}
  ,                                       !- Cooling Minimum Air Flow Fraction
  DesignDay,                              !- Heating Design Air Flow Method
  ,                                       !- Heating Design Air Flow Rate {m3/s}
  ,                                       !- Heating Maximum Air Flow per Zone Floor Area {m3/s-m2}
  ,                                       !- Heating Maximum Air Flow {m3/s}
  ,                                       !- Heating Maximum Air Flow Fraction
  ,                                       !- Design Zone Air Distribution Effectiveness in Cooling Mode
  ,                                       !- Design Zone Air Distribution Effectiveness in Heating Mode
  No,                                     !- Account for Dedicated Outdoor Air System
  NeutralSupplyAir,                       !- Dedicated Outdoor Air System Control Strategy
  autosize,                               !- Dedicated Outdoor Air Low Setpoint Temperature for Design {C}
  autosize;                               !- Dedicated Outdoor Air High Setpoint Temperature for Design {C}

OS:ZoneHVAC:EquipmentList,
  {4eadf6c3-e714-4447-9f60-f5f1b63cfdea}, !- Handle
  Zone HVAC Equipment List 2,             !- Name
  {0e26281c-b4fe-4c49-88cc-adcfcaa6ab2f}; !- Thermal Zone

OS:Space,
  {36d7fe23-c804-4161-b218-d7a32f4b1a99}, !- Handle
  East Perimeter Space - Story Ground,    !- Name
  ,                                       !- Space Type Name
  ,                                       !- Default Construction Set Name
  ,                                       !- Default Schedule Set Name
  -0,                                     !- Direction of Relative North {deg}
  17.5976362048998,                       !- X Origin {m}
  11.7317574699332,                       !- Y Origin {m}
  0,                                      !- Z Origin {m}
  {4bc744c2-89fa-43ca-a422-447da7b3cbf9}, !- Building Story Name
  {02344724-e106-4612-aedd-a8ff3727d10e}; !- Thermal Zone Name

OS:Surface,
  {a33fd8a8-229a-4854-93bf-34b23dd86edf}, !- Handle
  Surface 13,                             !- Name
  Floor,                                  !- Surface Type
  ,                                       !- Construction Name
  {36d7fe23-c804-4161-b218-d7a32f4b1a99}, !- Space Name
  Adiabatic,                              !- Outside Boundary Condition
  ,                                       !- Outside Boundary Condition Object
  NoSun,                                  !- Sun Exposure
  NoWind,                                 !- Wind Exposure
  ,                                       !- View Factor to Ground
  ,                                       !- Number of Vertices
  7.105427357601e-015, 3.5527136788005e-015, 0, !- X,Y,Z Vertex 1 {m}
  7.105427357601e-015, -23.4635149398664, 0, !- X,Y,Z Vertex 2 {m}
  -4.57199999999999, -18.8915149398664, 0, !- X,Y,Z Vertex 3 {m}
  -4.57199999999999, -4.572, 0;           !- X,Y,Z Vertex 4 {m}

OS:Surface,
  {f84f3965-96b6-4f5f-81aa-cdc1eafaa3ed}, !- Handle
  Surface 14,                             !- Name
  Wall,                                   !- Surface Type
  ,                                       !- Construction Name
  {36d7fe23-c804-4161-b218-d7a32f4b1a99}, !- Space Name
  Outdoors,                               !- Outside Boundary Condition
  ,                                       !- Outside Boundary Condition Object
  SunExposed,                             !- Sun Exposure
  WindExposed,                            !- Wind Exposure
  ,                                       !- View Factor to Ground
  ,                                       !- Number of Vertices
  7.105427357601e-015, -23.4635149398664, 3.9624, !- X,Y,Z Vertex 1 {m}
  7.105427357601e-015, -23.4635149398664, 0, !- X,Y,Z Vertex 2 {m}
  7.105427357601e-015, 3.5527136788005e-015, 0, !- X,Y,Z Vertex 3 {m}
  7.105427357601e-015, 3.5527136788005e-015, 3.9624; !- X,Y,Z Vertex 4 {m}

OS:Surface,
  {421df2da-cca4-4d7d-afcd-bfc191f51d36}, !- Handle
  Surface 15,                             !- Name
  Wall,                                   !- Surface Type
  ,                                       !- Construction Name
  {36d7fe23-c804-4161-b218-d7a32f4b1a99}, !- Space Name
  Surface,                                !- Outside Boundary Condition
  {0bf9fcf4-1672-45cb-90ae-a1e8bb9349c2}, !- Outside Boundary Condition Object
  NoSun,                                  !- Sun Exposure
  NoWind,                                 !- Wind Exposure
  ,                                       !- View Factor to Ground
  ,                                       !- Number of Vertices
  -4.57199999999999, -18.8915149398664, 3.9624, !- X,Y,Z Vertex 1 {m}
  -4.57199999999999, -18.8915149398664, 0, !- X,Y,Z Vertex 2 {m}
  7.105427357601e-015, -23.4635149398664, 0, !- X,Y,Z Vertex 3 {m}
  7.105427357601e-015, -23.4635149398664, 3.9624; !- X,Y,Z Vertex 4 {m}

OS:Surface,
  {46a47150-9a0d-4a81-a298-4895a505c9e7}, !- Handle
  Surface 16,                             !- Name
  Wall,                                   !- Surface Type
  ,                                       !- Construction Name
  {36d7fe23-c804-4161-b218-d7a32f4b1a99}, !- Space Name