
OS:Version,
  {1e3d20e9-c030-4d1c-983f-224c25001d88}, !- Handle
  2.7.2;                                  !- Version Identifier

OS:SpaceType,
  {9082ccf8-4108-46d2-b735-b125b5f9e2b5}, !- Handle
  Office WholeBuilding - Md Office,       !- Name
  ,                                       !- Default Construction Set Name
  ,                                       !- Default Schedule Set Name
  {9e17c602-676a-4b29-b5a5-033cca35598e}, !- Group Rendering Name
  ,                                       !- Design Specification Outdoor Air Object Name
  ,                                       !- Standards Template
  Office,                                 !- Standards Building Type
  WholeBuilding - Md Office;              !- Standards Space Type

OS:Rendering:Color,
  {9e17c602-676a-4b29-b5a5-033cca35598e}, !- Handle
  Office WholeBuilding - Md Office,       !- Name
  120,                                    !- Rendering Red Value
  230,                                    !- Rendering Green Value
  199;                                    !- Rendering Blue Value

OS:Building,
  {54c6e8b5-ba0a-41d5-b692-008da99e9987}, !- Handle
  90.1-2004|MediumOffice,                 !- Name
  ,                                       !- Building Sector Type
  ,                                       !- North Axis {deg}
  ,                                       !- Nominal Floor to Floor Height {m}
  {9082ccf8-4108-46d2-b735-b125b5f9e2b5}, !- Space Type Name
  ,                                       !- Default Construction Set Name
  ;                                       !- Default Schedule Set Name

OS:Site,
  {f05c127f-2f5a-4d2c-afe6-92f384a6c12c}, !- Handle
  Site 1,                                 !- Name
  ,                                       !- Latitude {deg}
  ,                                       !- Longitude {deg}
  ,                                       !- Time Zone {hr}
  ,                                       !- Elevation {m}
  ;                                       !- Terrain

OS:BuildingStory,
  {446f965a-c07b-4377-9b67-9505ce9868fb}, !- Handle
  Story Ground,                           !- Name
  0,                                      !- Nominal Z Coordinate {m}
  3.9624,                                 !- Nominal Floor to Floor Height {m}
  ,                                       !- Default Construction Set Name
  ,                                       !- Default Schedule Set Name
  ;                                       !- Group Rendering Name

OS:Space,
  {f30500e5-91c8-45df-afe7-00fface0e606}, !- Handle
  West Perimeter Space - Story Ground,    !- Name
  ,                                       !- Space Type Name
  ,                                       !- Default Construction Set Name
  ,                                       !- Default Schedule Set Name
  -0,                                     !- Direction of Relative North {deg}
  -17.5976362048998,                      !- X Origin {m}
  -11.7317574699332,                      !- Y Origin {m}
  0,                                      !- Z Origin {m}
  {446f965a-c07b-4377-9b67-9505ce9868fb}, !- Building Story Name
  {22b2029a-3dc3-4b39-b4fc-f1374509e446}; !- Thermal Zone Name

OS:Surface,
  {c1d2553e-2621-4375-9ed7-bf85a41b7187}, !- Handle
  Surface 1,                              !- Name
  Floor,                                  !- Surface Type
  ,                                       !- Construction Name
  {f30500e5-91c8-45df-afe7-00fface0e606}, !- Space Name
  Adiabatic,                              !- Outside Boundary Condition
  ,                                       !- Outside Boundary Condition Object
  NoSun,                                  !- Sun Exposure
  NoWind,                                 !- Wind Exposure
  ,                                       !- View Factor to Ground
  ,                                       !- Number of Vertices
  -7.105427357601e-015, -3.5527136788005e-015, 0, !- X,Y,Z Vertex 1 {m}
  -7.105427357601e-015, 23.4635149398664, 0, !- X,Y,Z Vertex 2 {m}
  4.57199999999999, 18.8915149398664, 0,  !- X,Y,Z Vertex 3 {m}
  4.57199999999999, 4.572, 0;             !- X,Y,Z Vertex 4 {m}

OS:Surface,
  {cf7dfbc2-fc14-45d6-b601-7f6cf5f8cd63}, !- Handle
  Surface 2,                              !- Name
  Wall,                                   !- Surface Type
  ,                                       !- Construction Name
  {f30500e5-91c8-45df-afe7-00fface0e606}, !- Space Name
  Outdoors,                               !- Outside Boundary Condition
  ,                                       !- Outside Boundary Condition Object
  SunExposed,                             !- Sun Exposure
  WindExposed,                            !- Wind Exposure
  ,                                       !- View Factor to Ground
  ,                                       !- Number of Vertices
  -7.105427357601e-015, 23.4635149398664, 3.9624, !- X,Y,Z Vertex 1 {m}
  -7.105427357601e-015, 23.4635149398664, 0, !- X,Y,Z Vertex 2 {m}
  -7.105427357601e-015, -3.5527136788005e-015, 0, !- X,Y,Z Vertex 3 {m}
  -7.105427357601e-015, -3.5527136788005e-015, 3.9624; !- X,Y,Z Vertex 4 {m}

OS:Surface,
  {4897d4db-1545-4920-85cf-f058934ed54d}, !- Handle
  Surface 3,                              !- Name
  Wall,                                   !- Surface Type
  ,                                       !- Construction Name
  {f30500e5-91c8-45df-afe7-00fface0e606}, !- Space Name
  Surface,                                !- Outside Boundary Condition
  {e6749b1f-0d05-4203-afc8-02f0e26e1b4e}, !- Outside Boundary Condition Object
  NoSun,                                  !- Sun Exposure
  NoWind,                                 !- Wind Exposure
  ,                                       !- View Factor to Ground
  ,                                       !- Number of Vertices
  4.57199999999999, 18.8915149398664, 3.9624, !- X,Y,Z Vertex 1 {m}
  4.57199999999999, 18.8915149398664, 0,  !- X,Y,Z Vertex 2 {m}
  -7.105427357601e-015, 23.4635149398664, 0, !- X,Y,Z Vertex 3 {m}
  -7.105427357601e-015, 23.4635149398664, 3.9624; !- X,Y,Z Vertex 4 {m}

OS:Surface,
  {324f4f68-bbb1-42d3-80ee-c86842fb0228}, !- Handle
  Surface 4,                              !- Name
  Wall,                                   !- Surface Type
  ,                                       !- Construction Name
  {f30500e5-91c8-45df-afe7-00fface0e606}, !- Space Name
  Surface,                                !- Outside Boundary Condition
  {2bfb6fa8-667f-444c-a2d8-9d621ee1b722}, !- Outside Boundary Condition Object
  NoSun,                                  !- Sun Exposure
  NoWind,                                 !- Wind Exposure
  ,                                       !- View Factor to Ground
  ,                                       !- Number of Vertices
  4.57199999999999, 4.572, 3.9624,        !- X,Y,Z Vertex 1 {m}
  4.57199999999999, 4.572, 0,             !- X,Y,Z Vertex 2 {m}
  4.57199999999999, 18.8915149398664, 0,  !- X,Y,Z Vertex 3 {m}
  4.57199999999999, 18.8915149398664, 3.9624; !- X,Y,Z Vertex 4 {m}

OS:Surface,
  {e38251fa-a2ba-4267-99c3-341fa092f31c}, !- Handle
  Surface 5,                              !- Name
  Wall,                                   !- Surface Type
  ,                                       !- Construction Name
  {f30500e5-91c8-45df-afe7-00fface0e606}, !- Space Name
  Surface,                                !- Outside Boundary Condition
  {d003d144-6198-449e-bfbf-a44a7b6fc798}, !- Outside Boundary Condition Object
  NoSun,                                  !- Sun Exposure
  NoWind,                                 !- Wind Exposure
  ,                                       !- View Factor to Ground
  ,                                       !- Number of Vertices
  -7.105427357601e-015, -3.5527136788005e-015, 3.9624, !- X,Y,Z Vertex 1 {m}
  -7.105427357601e-015, -3.5527136788005e-015, 0, !- X,Y,Z Vertex 2 {m}
  4.57199999999999, 4.572, 0,             !- X,Y,Z Vertex 3 {m}
  4.57199999999999, 4.572, 3.9624;        !- X,Y,Z Vertex 4 {m}

OS:Surface,
  {88f3c2b2-8750-4b3b-9170-417dec087e49}, !- Handle
  Surface 6,                              !- Name
  RoofCeiling,                            !- Surface Type
  ,                                       !- Construction Name
  {f30500e5-91c8-45df-afe7-00fface0e606}, !- Space Name
  Adiabatic,                              !- Outside Boundary Condition
  ,                                       !- Outside Boundary Condition Object
  NoSun,                                  !- Sun Exposure
  NoWind,                                 !- Wind Exposure
  ,                                       !- View Factor to Ground
  ,                                       !- Number of Vertices
  4.57199999999999, 4.572, 3.9624,        !- X,Y,Z Vertex 1 {m}
  4.57199999999999, 18.8915149398664, 3.9624, !- X,Y,Z Vertex 2 {m}
  -7.105427357601e-015, 23.4635149398664, 3.9624, !- X,Y,Z Vertex 3 {m}
  -7.105427357601e-015, -3.5527136788005e-015, 3.9624; !- X,Y,Z Vertex 4 {m}

OS:ThermalZone,
  {22b2029a-3dc3-4b39-b4fc-f1374509e446}, !- Handle
  Zone West Perimeter Space - Story Ground, !- Name
  1,                                      !- Multiplier
  ,                                       !- Ceiling Height {m}
  ,                                       !- Volume {m3}
  ,                                       !- Floor Area {m2}
  ,                                       !- Zone Inside Convection Algorithm
  ,                                       !- Zone Outside Convection Algorithm
  ,                                       !- Zone Conditioning Equipment List Name
  {102b71f6-dcc3-4704-abe0-b63c68686ab8}, !- Zone Air Inlet Port List
  {99848fe0-8251-4d2e-aca0-ea4f8bf1ef22}, !- Zone Air Exhaust Port List
  {a70f04e4-3b78-4905-963b-4713c19d68ed}, !- Zone Air Node Name
  {556d4bd7-bb38-4ec9-ae20-2528d899d368}, !- Zone Return Air Port List
  ,                                       !- Primary Daylighting Control Name
  ,                                       !- Fraction of Zone Controlled by Primary Daylighting Control
  ,                                       !- Secondary Daylighting Control Name
  ,                                       !- Fraction of Zone Controlled by Secondary Daylighting Control
  ,                                       !- Illuminance Map Name
  ,                                       !- Group Rendering Name
  ,                                       !- Thermostat Name
  No;                                     !- Use Ideal Air Loads

OS:Node,
  {4b30e8a4-59a6-49fb-844f-99beaf50112e}, !- Handle
  Node 1,                                 !- Name
  {a70f04e4-3b78-4905-963b-4713c19d68ed}, !- Inlet Port
  ;                                       !- Outlet Port

OS:Connection,
  {a70f04e4-3b78-4905-963b-4713c19d68ed}, !- Handle
  {0faa0856-e44f-44d7-b48f-820c4fdabc38}, !- Name
  {22b2029a-3dc3-4b39-b4fc-f1374509e446}, !- Source Object
  11,                                     !- Outlet Port
  {4b30e8a4-59a6-49fb-844f-99beaf50112e}, !- Target Object
  2;                                      !- Inlet Port

OS:PortList,
  {102b71f6-dcc3-4704-abe0-b63c68686ab8}, !- Handle
  {feb3ab72-048a-40d0-8657-6a55e5a3144a}, !- Name
  {22b2029a-3dc3-4b39-b4fc-f1374509e446}; !- HVAC Component

OS:PortList,
  {99848fe0-8251-4d2e-aca0-ea4f8bf1ef22}, !- Handle
  {59a294c2-fbc8-4693-be1b-3540719a0063}, !- Name
  {22b2029a-3dc3-4b39-b4fc-f1374509e446}; !- HVAC Component

OS:PortList,
  {556d4bd7-bb38-4ec9-ae20-2528d899d368}, !- Handle
  {d50b5c8b-42dd-4e29-9693-ca0b00ccc8b6}, !- Name
  {22b2029a-3dc3-4b39-b4fc-f1374509e446}; !- HVAC Component

OS:Sizing:Zone,
  {c6b7e5ab-8f35-4517-b625-02ee4755ac13}, !- Handle
  {22b2029a-3dc3-4b39-b4fc-f1374509e446}, !- Zone or ZoneList Name
  SupplyAirTemperature,                   !- Zone Cooling Design Supply Air Temperature Input Method
  14,                                     !- Zone Cooling Design Supply Air Temperature {C}
  11.11,                                  !- Zone Cooling Design Supply Air Temperature Difference {deltaC}
  SupplyAirTemperature,                   !- Zone Heating Design Supply Air Temperature Input Method
  40,                                     !- Zone Heating Design Supply Air Temperature {C}
  11.11,                                  !- Zone Heating Design Supply Air Temperature Difference {deltaC}
  0.0085,                                 !- Zone Cooling Design Supply Air Humidity Ratio {kg-H2O/kg-air}
  0.008,                                  !- Zone Heating Design Supply Air Humidity Ratio {kg-H2O/kg-air}
  ,                                       !- Zone Heating Sizing Factor
  ,                                       !- Zone Cooling Sizing Factor
  DesignDay,                              !- Cooling Design Air Flow Method
  ,                                       !- Cooling Design Air Flow Rate {m3/s}
  ,                                       !- Cooling Minimum Air Flow per Zone Floor Area {m3/s-m2}
  ,                                       !- Cooling Minimum Air Flow {m3/s}
  ,                                       !- Cooling Minimum Air Flow Fraction
  DesignDay,                              !- Heating Design Air Flow Method
  ,                                       !- Heating Design Air Flow Rate {m3/s}
  ,                                       !- Heating Maximum Air Flow per Zone Floor Area {m3/s-m2}
  ,                                       !- Heating Maximum Air Flow {m3/s}
  ,                                       !- Heating Maximum Air Flow Fraction
  ,                                       !- Design Zone Air Distribution Effectiveness in Cooling Mode
  ,                                       !- Design Zone Air Distribution Effectiveness in Heating Mode
  No,                                     !- Account for Dedicated Outdoor Air System
  NeutralSupplyAir,                       !- Dedicated Outdoor Air System Control Strategy
  autosize,                               !- Dedicated Outdoor Air Low Setpoint Temperature for Design {C}
  autosize;                               !- Dedicated Outdoor Air High Setpoint Temperature for Design {C}

OS:ZoneHVAC:EquipmentList,
  {554a9a36-26f7-48bf-a8bf-63447f748018}, !- Handle
  Zone HVAC Equipment List 1,             !- Name
  {22b2029a-3dc3-4b39-b4fc-f1374509e446}; !- Thermal Zone

OS:Space,
  {5409e17b-c963-4a4b-b288-03eb0c57102c}, !- Handle
  North Perimeter Space - Story Ground,   !- Name
  ,                                       !- Space Type Name
  ,                                       !- Default Construction Set Name
  ,                                       !- Default Schedule Set Name
  -0,                                     !- Direction of Relative North {deg}
  -17.5976362048998,                      !- X Origin {m}
  11.7317574699332,                       !- Y Origin {m}
  0,                                      !- Z Origin {m}
  {446f965a-c07b-4377-9b67-9505ce9868fb}, !- Building Story Name
  {772c61e7-2c21-467f-aae0-f03d79ef332c}; !- Thermal Zone Name

OS:Surface,
  {c0b413b5-1cbb-4153-8ccd-a767c8867f5b}, !- Handle
  Surface 7,                              !- Name
  Floor,                                  !- Surface Type
  ,                                       !- Construction Name
  {5409e17b-c963-4a4b-b288-03eb0c57102c}, !- Space Name
  Adiabatic,                              !- Outside Boundary Condition
  ,                                       !- Outside Boundary Condition Object
  NoSun,                                  !- Sun Exposure
  NoWind,                                 !- Wind Exposure
  ,                                       !- View Factor to Ground
  ,                                       !- Number of Vertices
  -7.105427357601e-015, 3.5527136788005e-015, 0, !- X,Y,Z Vertex 1 {m}
  35.1952724097996, 3.5527136788005e-015, 0, !- X,Y,Z Vertex 2 {m}
  30.6232724097996, -4.572, 0,            !- X,Y,Z Vertex 3 {m}
  4.57199999999999, -4.572, 0;            !- X,Y,Z Vertex 4 {m}

OS:Surface,
  {c30d52a7-e33f-4ab3-a17b-a67c5c318fc6}, !- Handle
  Surface 8,                              !- Name
  Wall,                                   !- Surface Type
  ,                                       !- Construction Name
  {5409e17b-c963-4a4b-b288-03eb0c57102c}, !- Space Name
  Outdoors,                               !- Outside Boundary Condition
  ,                                       !- Outside Boundary Condition Object
  SunExposed,                             !- Sun Exposure
  WindExposed,                            !- Wind Exposure
  ,                                       !- View Factor to Ground
  ,                                       !- Number of Vertices
  35.1952724097996, 3.5527136788005e-015, 3.9624, !- X,Y,Z Vertex 1 {m}
  35.1952724097996, 3.5527136788005e-015, 0, !- X,Y,Z Vertex 2 {m}
  -7.105427357601e-015, 3.5527136788005e-015, 0, !- X,Y,Z Vertex 3 {m}
  -7.105427357601e-015, 3.5527136788005e-015, 3.9624; !- X,Y,Z Vertex 4 {m}

OS:Surface,
  {f8f29556-272a-45b3-a5d2-d9c8debd7b62}, !- Handle
  Surface 9,                              !- Name
  Wall,                                   !- Surface Type
  ,                                       !- Construction Name
  {5409e17b-c963-4a4b-b288-03eb0c57102c}, !- Space Name
  Surface,                                !- Outside Boundary Condition
  {fa5cb0d5-de91-40ba-a8e1-7ca6a5f919fa}, !- Outside Boundary Condition Object
  NoSun,                                  !- Sun Exposure
  NoWind,                                 !- Wind Exposure
  ,                                       !- View Factor to Ground
  ,                                       !- Number of Vertices
  30.6232724097996, -4.572, 3.9624,       !- X,Y,Z Vertex 1 {m}
  30.6232724097996, -4.572, 0,            !- X,Y,Z Vertex 2 {m}
  35.1952724097996, 3.5527136788005e-015, 0, !- X,Y,Z Vertex 3 {m}
  35.1952724097996, 3.5527136788005e-015, 3.9624; !- X,Y,Z Vertex 4 {m}

OS:Surface,
  {7370e0b7-0003-4cca-9ce3-f63dd9437853}, !- Handle
  Surface 10,                             !- Name
  Wall,                                   !- Surface Type
  ,                                       !- Construction Name
  {5409e17b-c963-4a4b-b288-03eb0c57102c}, !- Space Name
  Surface,                                !- Outside Boundary Condition
  {3906bd2b-bccc-4a67-8fc6-578e08576ab5}, !- Outside Boundary Condition Object
  NoSun,                                  !- Sun Exposure
  NoWind,                                 !- Wind Exposure
  ,                                       !- View Factor to Ground
  ,                                       !- Number of Vertices
  4.57199999999999, -4.572, 3.9624,       !- X,Y,Z Vertex 1 {m}
  4.57199999999999, -4.572, 0,            !- X,Y,Z Vertex 2 {m}
  30.6232724097996, -4.572, 0,            !- X,Y,Z Vertex 3 {m}
  30.6232724097996, -4.572, 3.9624;       !- X,Y,Z Vertex 4 {m}

OS:Surface,
  {e6749b1f-0d05-4203-afc8-02f0e26e1b4e}, !- Handle
  Surface 11,                             !- Name
  Wall,                                   !- Surface Type
  ,                                       !- Construction Name
  {5409e17b-c963-4a4b-b288-03eb0c57102c}, !- Space Name
  Surface,                                !- Outside Boundary Condition
  {4897d4db-1545-4920-85cf-f058934ed54d}, !- Outside Boundary Condition Object
  NoSun,                                  !- Sun Exposure
  NoWind,                                 !- Wind Exposure
  ,                                       !- View Factor to Ground
  ,                                       !- Number of Vertices
  -7.105427357601e-015, 3.5527136788005e-015, 3.9624, !- X,Y,Z Vertex 1 {m}
  -7.105427357601e-015, 3.5527136788005e-015, 0, !- X,Y,Z Vertex 2 {m}
  4.57199999999999, -4.572, 0,            !- X,Y,Z Vertex 3 {m}
  4.57199999999999, -4.572, 3.9624;       !- X,Y,Z Vertex 4 {m}

OS:Surface,
  {46aaae36-a7ec-4faa-ab33-5a109acd6e1a}, !- Handle
  Surface 12,                             !- Name
  RoofCeiling,                            !- Surface Type
  ,                                       !- Construction Name
  {5409e17b-c963-4a4b-b288-03eb0c57102c}, !- Space Name
  Adiabatic,                              !- Outside Boundary Condition
  ,                                       !- Outside Boundary Condition Object
  NoSun,                                  !- Sun Exposure
  NoWind,                                 !- Wind Exposure
  ,                                       !- View Factor to Ground
  ,                                       !- Number of Vertices
  4.57199999999999, -4.572, 3.9624,       !- X,Y,Z Vertex 1 {m}
  30.6232724097996, -4.572, 3.9624,       !- X,Y,Z Vertex 2 {m}
  35.1952724097996, 3.5527136788005e-015, 3.9624, !- X,Y,Z Vertex 3 {m}
  -7.105427357601e-015, 3.5527136788005e-015, 3.9624; !- X,Y,Z Vertex 4 {m}

OS:ThermalZone,
  {772c61e7-2c21-467f-aae0-f03d79ef332c}, !- Handle
  Zone North Perimeter Space - Story Ground, !- Name
  1,                                      !- Multiplier
  ,                                       !- Ceiling Height {m}
  ,                                       !- Volume {m3}
  ,                                       !- Floor Area {m2}
  ,                                       !- Zone Inside Convection Algorithm
  ,                                       !- Zone Outside Convection Algorithm
  ,                                       !- Zone Conditioning Equipment List Name
  {8115229a-2393-4601-a95c-35f406c43e03}, !- Zone Air Inlet Port List
  {67730713-951b-4fde-b73e-828a638aae67}, !- Zone Air Exhaust Port List
  {7719c7e5-f518-42f7-bad6-086819cd716c}, !- Zone Air Node Name
  {219c2240-b547-49f7-bee8-52e5e1acab28}, !- Zone Return Air Port List
  ,                                       !- Primary Daylighting Control Name
  ,                                       !- Fraction of Zone Controlled by Primary Daylighting Control
  ,                                       !- Secondary Daylighting Control Name
  ,                                       !- Fraction of Zone Controlled by Secondary Daylighting Control
  ,                                       !- Illuminance Map Name
  ,                                       !- Group Rendering Name
  ,                                       !- Thermostat Name
  No;                                     !- Use Ideal Air Loads

OS:Node,
  {0263970b-f56d-4370-b717-a880f3a47420}, !- Handle
  Node 2,                                 !- Name
  {7719c7e5-f518-42f7-bad6-086819cd716c}, !- Inlet Port
  ;                                       !- Outlet Port

OS:Connection,
  {7719c7e5-f518-42f7-bad6-086819cd716c}, !- Handle
  {7b86c8f6-cf25-409d-a6cb-1e787da08b9c}, !- Name
  {772c61e7-2c21-467f-aae0-f03d79ef332c}, !- Source Object
  11,                                     !- Outlet Port
  {0263970b-f56d-4370-b717-a880f3a47420}, !- Target Object
  2;                                      !- Inlet Port

OS:PortList,
  {8115229a-2393-4601-a95c-35f406c43e03}, !- Handle
  {08113f13-0c61-4bf7-b8e3-bbca3846bc74}, !- Name
  {772c61e7-2c21-467f-aae0-f03d79ef332c}; !- HVAC Component

OS:PortList,
  {67730713-951b-4fde-b73e-828a638aae67}, !- Handle
  {86787c13-d236-4057-b7a4-da5c423df575}, !- Name
  {772c61e7-2c21-467f-aae0-f03d79ef332c}; !- HVAC Component

OS:PortList,
  {219c2240-b547-49f7-bee8-52e5e1acab28}, !- Handle
  {4d7d008d-0786-46b3-a7db-6d831c294d16}, !- Name
  {772c61e7-2c21-467f-aae0-f03d79ef332c}; !- HVAC Component

OS:Sizing:Zone,
  {6ff7983a-901d-4076-b8f7-ab9625620240}, !- Handle
  {772c61e7-2c21-467f-aae0-f03d79ef332c}, !- Zone or ZoneList Name
  SupplyAirTemperature,                   !- Zone Cooling Design Supply Air Temperature Input Method
  14,                                     !- Zone Cooling Design Supply Air Temperature {C}
  11.11,                                  !- Zone Cooling Design Supply Air Temperature Difference {deltaC}
  SupplyAirTemperature,                   !- Zone Heating Design Supply Air Temperature Input Method
  40,                                     !- Zone Heating Design Supply Air Temperature {C}
  11.11,                                  !- Zone Heating Design Supply Air Temperature Difference {deltaC}
  0.0085,                                 !- Zone Cooling Design Supply Air Humidity Ratio {kg-H2O/kg-air}
  0.008,                                  !- Zone Heating Design Supply Air Humidity Ratio {kg-H2O/kg-air}
  ,                                       !- Zone Heating Sizing Factor
  ,                                       !- Zone Cooling Sizing Factor
  DesignDay,                              !- Cooling Design Air Flow Method
  ,                                       !- Cooling Design Air Flow Rate {m3/s}
  ,                                       !- Cooling Minimum Air Flow per Zone Floor Area {m3/s-m2}
  ,                                       !- Cooling Minimum Air Flow {m3/s}
  ,                                       !- Cooling Minimum Air Flow Fraction
  DesignDay,                              !- Heating Design Air Flow Method
  ,                                       !- Heating Design Air Flow Rate {m3/s}
  ,                                       !- Heating Maximum Air Flow per Zone Floor Area {m3/s-m2}
  ,                                       !- Heating Maximum Air Flow {m3/s}
  ,                                       !- Heating Maximum Air Flow Fraction
  ,                                       !- Design Zone Air Distribution Effectiveness in Cooling Mode
  ,                                       !- Design Zone Air Distribution Effectiveness in Heating Mode
  No,                                     !- Account for Dedicated Outdoor Air System
  NeutralSupplyAir,                       !- Dedicated Outdoor Air System Control Strategy
  autosize,                               !- Dedicated Outdoor Air Low Setpoint Temperature for Design {C}
  autosize;                               !- Dedicated Outdoor Air High Setpoint Temperature for Design {C}

OS:ZoneHVAC:EquipmentList,
  {e73bc886-30f5-4627-9103-d63983f88ada}, !- Handle
  Zone HVAC Equipment List 2,             !- Name
  {772c61e7-2c21-467f-aae0-f03d79ef332c}; !- Thermal Zone

OS:Space,
  {cc9c278d-b62c-4971-ae21-bd9244217ade}, !- Handle
  East Perimeter Space - Story Ground,    !- Name
  ,                                       !- Space Type Name
  ,                                       !- Default Construction Set Name
  ,                                       !- Default Schedule Set Name
  -0,                                     !- Direction of Relative North {deg}
  17.5976362048998,                       !- X Origin {m}
  11.7317574699332,                       !- Y Origin {m}
  0,                                      !- Z Origin {m}
  {446f965a-c07b-4377-9b67-9505ce9868fb}, !- Building Story Name
  {4a697ef4-6ddc-4cdc-a8e8-a587eeb1b3f5}; !- Thermal Zone Name

OS:Surface,
  {76c52e80-2f24-49b3-854c-5d50dab6d423}, !- Handle
  Surface 13,                             !- Name
  Floor,                                  !- Surface Type
  ,                                       !- Construction Name
  {cc9c278d-b62c-4971-ae21-bd9244217ade}, !- Space Name
  Adiabatic,                              !- Outside Boundary Condition
  ,                                       !- Outside Boundary Condition Object
  NoSun,                                  !- Sun Exposure
  NoWind,                                 !- Wind Exposure
  ,                                       !- View Factor to Ground
  ,                                       !- Number of Vertices
  7.105427357601e-015, 3.5527136788005e-015, 0, !- X,Y,Z Vertex 1 {m}
  7.105427357601e-015, -23.4635149398664, 0, !- X,Y,Z Vertex 2 {m}
  -4.57199999999999, -18.8915149398664, 0, !- X,Y,Z Vertex 3 {m}
  -4.57199999999999, -4.572, 0;           !- X,Y,Z Vertex 4 {m}

OS:Surface,
  {3a79b04b-6a75-4863-8bce-28f9153c2e75}, !- Handle
  Surface 14,                             !- Name
  Wall,                                   !- Surface Type
  ,                                       !- Construction Name
  {cc9c278d-b62c-4971-ae21-bd9244217ade}, !- Space Name
  Outdoors,                               !- Outside Boundary Condition
  ,                                       !- Outside Boundary Condition Object
  SunExposed,                             !- Sun Exposure
  WindExposed,                            !- Wind Exposure
  ,                                       !- View Factor to Ground
  ,                                       !- Number of Vertices
  7.105427357601e-015, -23.4635149398664, 3.9624, !- X,Y,Z Vertex 1 {m}
  7.105427357601e-015, -23.4635149398664, 0, !- X,Y,Z Vertex 2 {m}
  7.105427357601e-015, 3.5527136788005e-015, 0, !- X,Y,Z Vertex 3 {m}
  7.105427357601e-015, 3.5527136788005e-015, 3.9624; !- X,Y,Z Vertex 4 {m}

OS:Surface,
  {af7e8d46-89d5-4cf7-bf32-34d22d135a2e}, !- Handle
  Surface 15,                             !- Name
  Wall,                                   !- Surface Type
  ,                                       !- Construction Name
  {cc9c278d-b62c-4971-ae21-bd9244217ade}, !- Space Name
  Surface,                                !- Outside Boundary Condition
  {eafcf8fb-1a64-48ca-a5cf-28befdc993ee}, !- Outside Boundary Condition Object
  NoSun,                                  !- Sun Exposure
  NoWind,                                 !- Wind Exposure
  ,                                       !- View Factor to Ground
  ,                                       !- Number of Vertices
  -4.57199999999999, -18.8915149398664, 3.9624, !- X,Y,Z Vertex 1 {m}
  -4.57199999999999, -18.8915149398664, 0, !- X,Y,Z Vertex 2 {m}
  7.105427357601e-015, -23.4635149398664, 0, !- X,Y,Z Vertex 3 {m}
  7.105427357601e-015, -23.4635149398664, 3.9624; !- X,Y,Z Vertex 4 {m}

OS:Surface,
  {e3bbf02a-bf7c-460e-88ab-e8a25c20f4e7}, !- Handle
  Surface 16,                             !- Name
  Wall,                                   !- Surface Type
  ,                                       !- Construction Name
  {cc9c278d-b62c-4971-ae21-bd9244217ade}, !- Space Name