
OS:Version,
  {84840e4e-6646-40e9-9080-d7db9426b284}, !- Handle
  2.7.2;                                  !- Version Identifier

OS:SpaceType,
  {9ecbd5ea-1a1d-4243-bd54-f56596320e09}, !- Handle
  Office WholeBuilding - Md Office,       !- Name
  ,                                       !- Default Construction Set Name
  ,                                       !- Default Schedule Set Name
  {c95eb048-1b2c-4ca9-97d8-84286e944d3b}, !- Group Rendering Name
  ,                                       !- Design Specification Outdoor Air Object Name
  ,                                       !- Standards Template
  Office,                                 !- Standards Building Type
  WholeBuilding - Md Office;              !- Standards Space Type

OS:Rendering:Color,
  {c95eb048-1b2c-4ca9-97d8-84286e944d3b}, !- Handle
  Office WholeBuilding - Md Office,       !- Name
  120,                                    !- Rendering Red Value
  230,                                    !- Rendering Green Value
  199;                                    !- Rendering Blue Value

OS:Building,
  {80ee790c-15cf-41e0-8df2-5edff2fc3980}, !- Handle
  90.1-2004|MediumOffice,                 !- Name
  ,                                       !- Building Sector Type
  ,                                       !- North Axis {deg}
  ,                                       !- Nominal Floor to Floor Height {m}
  {9ecbd5ea-1a1d-4243-bd54-f56596320e09}, !- Space Type Name
  ,                                       !- Default Construction Set Name
  ;                                       !- Default Schedule Set Name

OS:Site,
  {339e673b-f188-474a-bf95-47d2adc157b0}, !- Handle
  Site 1,                                 !- Name
  ,                                       !- Latitude {deg}
  ,                                       !- Longitude {deg}
  ,                                       !- Time Zone {hr}
  ,                                       !- Elevation {m}
  ;                                       !- Terrain

OS:BuildingStory,
  {e611fda5-1b4a-4bf2-a4f1-af92b237b7ae}, !- Handle
  Story Ground,                           !- Name
  0,                                      !- Nominal Z Coordinate {m}
  3.9624,                                 !- Nominal Floor to Floor Height {m}
  ,                                       !- Default Construction Set Name
  ,                                       !- Default Schedule Set Name
  ;                                       !- Group Rendering Name

OS:Space,
  {e027f4c3-6cb7-41ac-8ad2-babbb55478a4}, !- Handle
  West Perimeter Space - Story Ground,    !- Name
  ,                                       !- Space Type Name
  ,                                       !- Default Construction Set Name
  ,                                       !- Default Schedule Set Name
  -0,                                     !- Direction of Relative North {deg}
  -17.5976362048998,                      !- X Origin {m}
  -11.7317574699332,                      !- Y Origin {m}
  0,                                      !- Z Origin {m}
  {e611fda5-1b4a-4bf2-a4f1-af92b237b7ae}, !- Building Story Name
  {b5aaaa9a-715d-4897-9569-91bb3d589efb}; !- Thermal Zone Name

OS:Surface,
  {aeb1ba49-8402-436c-afe4-409cf3b70bcb}, !- Handle
  Surface 1,                              !- Name
  Floor,                                  !- Surface Type
  ,                                       !- Construction Name
  {e027f4c3-6cb7-41ac-8ad2-babbb55478a4}, !- Space Name
  Adiabatic,                              !- Outside Boundary Condition
  ,                                       !- Outside Boundary Condition Object
  NoSun,                                  !- Sun Exposure
  NoWind,                                 !- Wind Exposure
  ,                                       !- View Factor to Ground
  ,                                       !- Number of Vertices
  -7.105427357601e-015, -3.5527136788005e-015, 0, !- X,Y,Z Vertex 1 {m}
  -7.105427357601e-015, 23.4635149398664, 0, !- X,Y,Z Vertex 2 {m}
  4.57199999999999, 18.8915149398664, 0,  !- X,Y,Z Vertex 3 {m}
  4.57199999999999, 4.572, 0;             !- X,Y,Z Vertex 4 {m}

OS:Surface,
  {6ac249a8-5342-4bc1-b30f-cb400f5b0413}, !- Handle
  Surface 2,                              !- Name
  Wall,                                   !- Surface Type
  ,                                       !- Construction Name
  {e027f4c3-6cb7-41ac-8ad2-babbb55478a4}, !- Space Name
  Outdoors,                               !- Outside Boundary Condition
  ,                                       !- Outside Boundary Condition Object
  SunExposed,                             !- Sun Exposure
  WindExposed,                            !- Wind Exposure
  ,                                       !- View Factor to Ground
  ,                                       !- Number of Vertices
  -7.105427357601e-015, 23.4635149398664, 3.9624, !- X,Y,Z Vertex 1 {m}
  -7.105427357601e-015, 23.4635149398664, 0, !- X,Y,Z Vertex 2 {m}
  -7.105427357601e-015, -3.5527136788005e-015, 0, !- X,Y,Z Vertex 3 {m}
  -7.105427357601e-015, -3.5527136788005e-015, 3.9624; !- X,Y,Z Vertex 4 {m}

OS:Surface,
  {af7dd361-befd-48b4-95f0-9872b1c9adce}, !- Handle
  Surface 3,                              !- Name
  Wall,                                   !- Surface Type
  ,                                       !- Construction Name
  {e027f4c3-6cb7-41ac-8ad2-babbb55478a4}, !- Space Name
  Surface,                                !- Outside Boundary Condition
  {15bf1248-44c5-47cb-a6bb-f82918425d2d}, !- Outside Boundary Condition Object
  NoSun,                                  !- Sun Exposure
  NoWind,                                 !- Wind Exposure
  ,                                       !- View Factor to Ground
  ,                                       !- Number of Vertices
  4.57199999999999, 18.8915149398664, 3.9624, !- X,Y,Z Vertex 1 {m}
  4.57199999999999, 18.8915149398664, 0,  !- X,Y,Z Vertex 2 {m}
  -7.105427357601e-015, 23.4635149398664, 0, !- X,Y,Z Vertex 3 {m}
  -7.105427357601e-015, 23.4635149398664, 3.9624; !- X,Y,Z Vertex 4 {m}

OS:Surface,
  {8cbba0e5-7bd2-4755-8b67-581739a011f7}, !- Handle
  Surface 4,                              !- Name
  Wall,                                   !- Surface Type
  ,                                       !- Construction Name
  {e027f4c3-6cb7-41ac-8ad2-babbb55478a4}, !- Space Name
  Surface,                                !- Outside Boundary Condition
  {6acba36e-4f6b-4352-b532-ac8b2bbeb9bd}, !- Outside Boundary Condition Object
  NoSun,                                  !- Sun Exposure
  NoWind,                                 !- Wind Exposure
  ,                                       !- View Factor to Ground
  ,                                       !- Number of Vertices
  4.57199999999999, 4.572, 3.9624,        !- X,Y,Z Vertex 1 {m}
  4.57199999999999, 4.572, 0,             !- X,Y,Z Vertex 2 {m}
  4.57199999999999, 18.8915149398664, 0,  !- X,Y,Z Vertex 3 {m}
  4.57199999999999, 18.8915149398664, 3.9624; !- X,Y,Z Vertex 4 {m}

OS:Surface,
  {f18c7352-dbab-4ef3-83b6-b4e80ae3bdc7}, !- Handle
  Surface 5,                              !- Name
  Wall,                                   !- Surface Type
  ,                                       !- Construction Name
  {e027f4c3-6cb7-41ac-8ad2-babbb55478a4}, !- Space Name
  Surface,                                !- Outside Boundary Condition
  {99925081-97dd-4e74-b059-31568b220f72}, !- Outside Boundary Condition Object
  NoSun,                                  !- Sun Exposure
  NoWind,                                 !- Wind Exposure
  ,                                       !- View Factor to Ground
  ,                                       !- Number of Vertices
  -7.105427357601e-015, -3.5527136788005e-015, 3.9624, !- X,Y,Z Vertex 1 {m}
  -7.105427357601e-015, -3.5527136788005e-015, 0, !- X,Y,Z Vertex 2 {m}
  4.57199999999999, 4.572, 0,             !- X,Y,Z Vertex 3 {m}
  4.57199999999999, 4.572, 3.9624;        !- X,Y,Z Vertex 4 {m}

OS:Surface,
  {939f9fce-94a3-4e8e-aa3d-54810b990eb0}, !- Handle
  Surface 6,                              !- Name
  RoofCeiling,                            !- Surface Type
  ,                                       !- Construction Name
  {e027f4c3-6cb7-41ac-8ad2-babbb55478a4}, !- Space Name
  Adiabatic,                              !- Outside Boundary Condition
  ,                                       !- Outside Boundary Condition Object
  NoSun,                                  !- Sun Exposure
  NoWind,                                 !- Wind Exposure
  ,                                       !- View Factor to Ground
  ,                                       !- Number of Vertices
  4.57199999999999, 4.572, 3.9624,        !- X,Y,Z Vertex 1 {m}
  4.57199999999999, 18.8915149398664, 3.9624, !- X,Y,Z Vertex 2 {m}
  -7.105427357601e-015, 23.4635149398664, 3.9624, !- X,Y,Z Vertex 3 {m}
  -7.105427357601e-015, -3.5527136788005e-015, 3.9624; !- X,Y,Z Vertex 4 {m}

OS:ThermalZone,
  {b5aaaa9a-715d-4897-9569-91bb3d589efb}, !- Handle
  Zone West Perimeter Space - Story Ground, !- Name
  1,                                      !- Multiplier
  ,                                       !- Ceiling Height {m}
  ,                                       !- Volume {m3}
  ,                                       !- Floor Area {m2}
  ,                                       !- Zone Inside Convection Algorithm
  ,                                       !- Zone Outside Convection Algorithm
  ,                                       !- Zone Conditioning Equipment List Name
  {2e9dceac-f783-4302-a3f5-14875db31816}, !- Zone Air Inlet Port List
  {503cd404-a5d1-465c-92d0-42a1d15a914f}, !- Zone Air Exhaust Port List
  {ec7f72ee-7d79-43c6-9d87-5b6ca537d62d}, !- Zone Air Node Name
  {fa237752-e807-4d21-a49e-92d715da0b47}, !- Zone Return Air Port List
  ,                                       !- Primary Daylighting Control Name
  ,                                       !- Fraction of Zone Controlled by Primary Daylighting Control
  ,                                       !- Secondary Daylighting Control Name
  ,                                       !- Fraction of Zone Controlled by Secondary Daylighting Control
  ,                                       !- Illuminance Map Name
  ,                                       !- Group Rendering Name
  ,                                       !- Thermostat Name
  No;                                     !- Use Ideal Air Loads

OS:Node,
  {a03e77a9-0062-46f4-87ac-81e553cc968c}, !- Handle
  Node 1,                                 !- Name
  {ec7f72ee-7d79-43c6-9d87-5b6ca537d62d}, !- Inlet Port
  ;                                       !- Outlet Port

OS:Connection,
  {ec7f72ee-7d79-43c6-9d87-5b6ca537d62d}, !- Handle
  {6e2f1496-b8b7-4b74-8e00-4f86333e7ae6}, !- Name
  {b5aaaa9a-715d-4897-9569-91bb3d589efb}, !- Source Object
  11,                                     !- Outlet Port
  {a03e77a9-0062-46f4-87ac-81e553cc968c}, !- Target Object
  2;                                      !- Inlet Port

OS:PortList,
  {2e9dceac-f783-4302-a3f5-14875db31816}, !- Handle
  {466cfe16-3ba5-4105-9990-fd0f3194f452}, !- Name
  {b5aaaa9a-715d-4897-9569-91bb3d589efb}; !- HVAC Component

OS:PortList,
  {503cd404-a5d1-465c-92d0-42a1d15a914f}, !- Handle
  {94e0e0ce-4f3d-4f19-96b7-fabacf624f4f}, !- Name
  {b5aaaa9a-715d-4897-9569-91bb3d589efb}; !- HVAC Component

OS:PortList,
  {fa237752-e807-4d21-a49e-92d715da0b47}, !- Handle
  {f109a369-8352-45d8-8118-2dfbbb3c4fa7}, !- Name
  {b5aaaa9a-715d-4897-9569-91bb3d589efb}; !- HVAC Component

OS:Sizing:Zone,
  {18d4cb13-54b0-4d32-9ab7-25000104ec73}, !- Handle
  {b5aaaa9a-715d-4897-9569-91bb3d589efb}, !- Zone or ZoneList Name
  SupplyAirTemperature,                   !- Zone Cooling Design Supply Air Temperature Input Method
  14,                                     !- Zone Cooling Design Supply Air Temperature {C}
  11.11,                                  !- Zone Cooling Design Supply Air Temperature Difference {deltaC}
  SupplyAirTemperature,                   !- Zone Heating Design Supply Air Temperature Input Method
  40,                                     !- Zone Heating Design Supply Air Temperature {C}
  11.11,                                  !- Zone Heating Design Supply Air Temperature Difference {deltaC}
  0.0085,                                 !- Zone Cooling Design Supply Air Humidity Ratio {kg-H2O/kg-air}
  0.008,                                  !- Zone Heating Design Supply Air Humidity Ratio {kg-H2O/kg-air}
  ,                                       !- Zone Heating Sizing Factor
  ,                                       !- Zone Cooling Sizing Factor
  DesignDay,                              !- Cooling Design Air Flow Method
  ,                                       !- Cooling Design Air Flow Rate {m3/s}
  ,                                       !- Cooling Minimum Air Flow per Zone Floor Area {m3/s-m2}
  ,                                       !- Cooling Minimum Air Flow {m3/s}
  ,                                       !- Cooling Minimum Air Flow Fraction
  DesignDay,                              !- Heating Design Air Flow Method
  ,                                       !- Heating Design Air Flow Rate {m3/s}
  ,                                       !- Heating Maximum Air Flow per Zone Floor Area {m3/s-m2}
  ,                                       !- Heating Maximum Air Flow {m3/s}
  ,                                       !- Heating Maximum Air Flow Fraction
  ,                                       !- Design Zone Air Distribution Effectiveness in Cooling Mode
  ,                                       !- Design Zone Air Distribution Effectiveness in Heating Mode
  No,                                     !- Account for Dedicated Outdoor Air System
  NeutralSupplyAir,                       !- Dedicated Outdoor Air System Control Strategy
  autosize,                               !- Dedicated Outdoor Air Low Setpoint Temperature for Design {C}
  autosize;                               !- Dedicated Outdoor Air High Setpoint Temperature for Design {C}

OS:ZoneHVAC:EquipmentList,
  {a94f017e-4da2-4ef4-8ed1-c87fe1ab7ed8}, !- Handle
  Zone HVAC Equipment List 1,             !- Name
  {b5aaaa9a-715d-4897-9569-91bb3d589efb}; !- Thermal Zone

OS:Space,
  {53d5cf49-fb90-4a1e-95df-f6fa698a2ded}, !- Handle
  North Perimeter Space - Story Ground,   !- Name
  ,                                       !- Space Type Name
  ,                                       !- Default Construction Set Name
  ,                                       !- Default Schedule Set Name
  -0,                                     !- Direction of Relative North {deg}
  -17.5976362048998,                      !- X Origin {m}
  11.7317574699332,                       !- Y Origin {m}
  0,                                      !- Z Origin {m}
  {e611fda5-1b4a-4bf2-a4f1-af92b237b7ae}, !- Building Story Name
  {b1e53da5-c7ad-4ed7-8eee-6d3f0fffbe74}; !- Thermal Zone Name

OS:Surface,
  {04df7c62-7efc-4f53-9b91-9d2a2b296313}, !- Handle
  Surface 7,                              !- Name
  Floor,                                  !- Surface Type
  ,                                       !- Construction Name
  {53d5cf49-fb90-4a1e-95df-f6fa698a2ded}, !- Space Name
  Adiabatic,                              !- Outside Boundary Condition
  ,                                       !- Outside Boundary Condition Object
  NoSun,                                  !- Sun Exposure
  NoWind,                                 !- Wind Exposure
  ,                                       !- View Factor to Ground
  ,                                       !- Number of Vertices
  -7.105427357601e-015, 3.5527136788005e-015, 0, !- X,Y,Z Vertex 1 {m}
  35.1952724097996, 3.5527136788005e-015, 0, !- X,Y,Z Vertex 2 {m}
  30.6232724097996, -4.572, 0,            !- X,Y,Z Vertex 3 {m}
  4.57199999999999, -4.572, 0;            !- X,Y,Z Vertex 4 {m}

OS:Surface,
  {6c6e7123-62cf-4266-af6b-22eae9f2b6c8}, !- Handle
  Surface 8,                              !- Name
  Wall,                                   !- Surface Type
  ,                                       !- Construction Name
  {53d5cf49-fb90-4a1e-95df-f6fa698a2ded}, !- Space Name
  Outdoors,                               !- Outside Boundary Condition
  ,                                       !- Outside Boundary Condition Object
  SunExposed,                             !- Sun Exposure
  WindExposed,                            !- Wind Exposure
  ,                                       !- View Factor to Ground
  ,                                       !- Number of Vertices
  35.1952724097996, 3.5527136788005e-015, 3.9624, !- X,Y,Z Vertex 1 {m}
  35.1952724097996, 3.5527136788005e-015, 0, !- X,Y,Z Vertex 2 {m}
  -7.105427357601e-015, 3.5527136788005e-015, 0, !- X,Y,Z Vertex 3 {m}
  -7.105427357601e-015, 3.5527136788005e-015, 3.9624; !- X,Y,Z Vertex 4 {m}

OS:Surface,
  {9e166bc4-6862-421a-8574-8e10902e273a}, !- Handle
  Surface 9,                              !- Name
  Wall,                                   !- Surface Type
  ,                                       !- Construction Name
  {53d5cf49-fb90-4a1e-95df-f6fa698a2ded}, !- Space Name
  Surface,                                !- Outside Boundary Condition
  {c6082a58-1e58-41a3-b878-da79c8e5628c}, !- Outside Boundary Condition Object
  NoSun,                                  !- Sun Exposure
  NoWind,                                 !- Wind Exposure
  ,                                       !- View Factor to Ground
  ,                                       !- Number of Vertices
  30.6232724097996, -4.572, 3.9624,       !- X,Y,Z Vertex 1 {m}
  30.6232724097996, -4.572, 0,            !- X,Y,Z Vertex 2 {m}
  35.1952724097996, 3.5527136788005e-015, 0, !- X,Y,Z Vertex 3 {m}
  35.1952724097996, 3.5527136788005e-015, 3.9624; !- X,Y,Z Vertex 4 {m}

OS:Surface,
  {b0839b77-a623-4984-ab1e-d31c08916a2b}, !- Handle
  Surface 10,                             !- Name
  Wall,                                   !- Surface Type
  ,                                       !- Construction Name
  {53d5cf49-fb90-4a1e-95df-f6fa698a2ded}, !- Space Name
  Surface,                                !- Outside Boundary Condition
  {de36f7f0-1525-4ecb-b7a0-95b70013a4e1}, !- Outside Boundary Condition Object
  NoSun,                                  !- Sun Exposure
  NoWind,                                 !- Wind Exposure
  ,                                       !- View Factor to Ground
  ,                                       !- Number of Vertices
  4.57199999999999, -4.572, 3.9624,       !- X,Y,Z Vertex 1 {m}
  4.57199999999999, -4.572, 0,            !- X,Y,Z Vertex 2 {m}
  30.6232724097996, -4.572, 0,            !- X,Y,Z Vertex 3 {m}
  30.6232724097996, -4.572, 3.9624;       !- X,Y,Z Vertex 4 {m}

OS:Surface,
  {15bf1248-44c5-47cb-a6bb-f82918425d2d}, !- Handle
  Surface 11,                             !- Name
  Wall,                                   !- Surface Type
  ,                                       !- Construction Name
  {53d5cf49-fb90-4a1e-95df-f6fa698a2ded}, !- Space Name
  Surface,                                !- Outside Boundary Condition
  {af7dd361-befd-48b4-95f0-9872b1c9adce}, !- Outside Boundary Condition Object
  NoSun,                                  !- Sun Exposure
  NoWind,                                 !- Wind Exposure
  ,                                       !- View Factor to Ground
  ,                                       !- Number of Vertices
  -7.105427357601e-015, 3.5527136788005e-015, 3.9624, !- X,Y,Z Vertex 1 {m}
  -7.105427357601e-015, 3.5527136788005e-015, 0, !- X,Y,Z Vertex 2 {m}
  4.57199999999999, -4.572, 0,            !- X,Y,Z Vertex 3 {m}
  4.57199999999999, -4.572, 3.9624;       !- X,Y,Z Vertex 4 {m}

OS:Surface,
  {e09b862c-1543-4cb1-9ced-70fb31f49c09}, !- Handle
  Surface 12,                             !- Name
  RoofCeiling,                            !- Surface Type
  ,                                       !- Construction Name
  {53d5cf49-fb90-4a1e-95df-f6fa698a2ded}, !- Space Name
  Adiabatic,                              !- Outside Boundary Condition
  ,                                       !- Outside Boundary Condition Object
  NoSun,                                  !- Sun Exposure
  NoWind,                                 !- Wind Exposure
  ,                                       !- View Factor to Ground
  ,                                       !- Number of Vertices
  4.57199999999999, -4.572, 3.9624,       !- X,Y,Z Vertex 1 {m}
  30.6232724097996, -4.572, 3.9624,       !- X,Y,Z Vertex 2 {m}
  35.1952724097996, 3.5527136788005e-015, 3.9624, !- X,Y,Z Vertex 3 {m}
  -7.105427357601e-015, 3.5527136788005e-015, 3.9624; !- X,Y,Z Vertex 4 {m}

OS:ThermalZone,
  {b1e53da5-c7ad-4ed7-8eee-6d3f0fffbe74}, !- Handle
  Zone North Perimeter Space - Story Ground, !- Name
  1,                                      !- Multiplier
  ,                                       !- Ceiling Height {m}
  ,                                       !- Volume {m3}
  ,                                       !- Floor Area {m2}
  ,                                       !- Zone Inside Convection Algorithm
  ,                                       !- Zone Outside Convection Algorithm
  ,                                       !- Zone Conditioning Equipment List Name
  {1b741c61-f356-4438-bb60-c9ae8eb10375}, !- Zone Air Inlet Port List
  {d7593bf7-c5d8-4177-80bc-a9b432a4028d}, !- Zone Air Exhaust Port List
  {35a0e4e2-5c6e-432a-8f23-3b76454f34b3}, !- Zone Air Node Name
  {21faad57-3fcf-453e-877a-9d5a8d9e4baa}, !- Zone Return Air Port List
  ,                                       !- Primary Daylighting Control Name
  ,                                       !- Fraction of Zone Controlled by Primary Daylighting Control
  ,                                       !- Secondary Daylighting Control Name
  ,                                       !- Fraction of Zone Controlled by Secondary Daylighting Control
  ,                                       !- Illuminance Map Name
  ,                                       !- Group Rendering Name
  ,                                       !- Thermostat Name
  No;                                     !- Use Ideal Air Loads

OS:Node,
  {ca168c4a-df5b-41c8-90d2-25149b430d7f}, !- Handle
  Node 2,                                 !- Name
  {35a0e4e2-5c6e-432a-8f23-3b76454f34b3}, !- Inlet Port
  ;                                       !- Outlet Port

OS:Connection,
  {35a0e4e2-5c6e-432a-8f23-3b76454f34b3}, !- Handle
  {28dd9579-e2c7-40a3-883a-2391ce998fe3}, !- Name
  {b1e53da5-c7ad-4ed7-8eee-6d3f0fffbe74}, !- Source Object
  11,                                     !- Outlet Port
  {ca168c4a-df5b-41c8-90d2-25149b430d7f}, !- Target Object
  2;                                      !- Inlet Port

OS:PortList,
  {1b741c61-f356-4438-bb60-c9ae8eb10375}, !- Handle
  {7b019659-f5f2-487a-865c-376e0a345ec6}, !- Name
  {b1e53da5-c7ad-4ed7-8eee-6d3f0fffbe74}; !- HVAC Component

OS:PortList,
  {d7593bf7-c5d8-4177-80bc-a9b432a4028d}, !- Handle
  {24eb7c7b-eabb-4d5e-b526-36d49c6a5e19}, !- Name
  {b1e53da5-c7ad-4ed7-8eee-6d3f0fffbe74}; !- HVAC Component

OS:PortList,
  {21faad57-3fcf-453e-877a-9d5a8d9e4baa}, !- Handle
  {27426c6d-e0ef-448b-b44c-ab1aed02a1bf}, !- Name
  {b1e53da5-c7ad-4ed7-8eee-6d3f0fffbe74}; !- HVAC Component

OS:Sizing:Zone,
  {fbfbe944-d828-49cc-8765-83a9571a3fdb}, !- Handle
  {b1e53da5-c7ad-4ed7-8eee-6d3f0fffbe74}, !- Zone or ZoneList Name
  SupplyAirTemperature,                   !- Zone Cooling Design Supply Air Temperature Input Method
  14,                                     !- Zone Cooling Design Supply Air Temperature {C}
  11.11,                                  !- Zone Cooling Design Supply Air Temperature Difference {deltaC}
  SupplyAirTemperature,                   !- Zone Heating Design Supply Air Temperature Input Method
  40,                                     !- Zone Heating Design Supply Air Temperature {C}
  11.11,                                  !- Zone Heating Design Supply Air Temperature Difference {deltaC}
  0.0085,                                 !- Zone Cooling Design Supply Air Humidity Ratio {kg-H2O/kg-air}
  0.008,                                  !- Zone Heating Design Supply Air Humidity Ratio {kg-H2O/kg-air}
  ,                                       !- Zone Heating Sizing Factor
  ,                                       !- Zone Cooling Sizing Factor
  DesignDay,                              !- Cooling Design Air Flow Method
  ,                                       !- Cooling Design Air Flow Rate {m3/s}
  ,                                       !- Cooling Minimum Air Flow per Zone Floor Area {m3/s-m2}
  ,                                       !- Cooling Minimum Air Flow {m3/s}
  ,                                       !- Cooling Minimum Air Flow Fraction
  DesignDay,                              !- Heating Design Air Flow Method
  ,                                       !- Heating Design Air Flow Rate {m3/s}
  ,                                       !- Heating Maximum Air Flow per Zone Floor Area {m3/s-m2}
  ,                                       !- Heating Maximum Air Flow {m3/s}
  ,                                       !- Heating Maximum Air Flow Fraction
  ,                                       !- Design Zone Air Distribution Effectiveness in Cooling Mode
  ,                                       !- Design Zone Air Distribution Effectiveness in Heating Mode
  No,                                     !- Account for Dedicated Outdoor Air System
  NeutralSupplyAir,                       !- Dedicated Outdoor Air System Control Strategy
  autosize,                               !- Dedicated Outdoor Air Low Setpoint Temperature for Design {C}
  autosize;                               !- Dedicated Outdoor Air High Setpoint Temperature for Design {C}

OS:ZoneHVAC:EquipmentList,
  {8a11d348-5a19-4024-bdff-a074a4787900}, !- Handle
  Zone HVAC Equipment List 2,             !- Name
  {b1e53da5-c7ad-4ed7-8eee-6d3f0fffbe74}; !- Thermal Zone

OS:Space,
  {1b2e2617-905e-4a99-a36c-63a1a474e7fc}, !- Handle
  East Perimeter Space - Story Ground,    !- Name
  ,                                       !- Space Type Name
  ,                                       !- Default Construction Set Name
  ,                                       !- Default Schedule Set Name
  -0,                                     !- Direction of Relative North {deg}
  17.5976362048998,                       !- X Origin {m}
  11.7317574699332,                       !- Y Origin {m}
  0,                                      !- Z Origin {m}
  {e611fda5-1b4a-4bf2-a4f1-af92b237b7ae}, !- Building Story Name
  {3bd10fdc-6335-4e9b-af15-3c51afcdf38e}; !- Thermal Zone Name

OS:Surface,
  {ae63dfe5-9a40-4b81-8297-6e0219f687c9}, !- Handle
  Surface 13,                             !- Name
  Floor,                                  !- Surface Type
  ,                                       !- Construction Name
  {1b2e2617-905e-4a99-a36c-63a1a474e7fc}, !- Space Name
  Adiabatic,                              !- Outside Boundary Condition
  ,                                       !- Outside Boundary Condition Object
  NoSun,                                  !- Sun Exposure
  NoWind,                                 !- Wind Exposure
  ,                                       !- View Factor to Ground
  ,                                       !- Number of Vertices
  7.105427357601e-015, 3.5527136788005e-015, 0, !- X,Y,Z Vertex 1 {m}
  7.105427357601e-015, -23.4635149398664, 0, !- X,Y,Z Vertex 2 {m}
  -4.57199999999999, -18.8915149398664, 0, !- X,Y,Z Vertex 3 {m}
  -4.57199999999999, -4.572, 0;           !- X,Y,Z Vertex 4 {m}

OS:Surface,
  {51faf8f1-7052-4942-9681-bee50180b8e8}, !- Handle
  Surface 14,                             !- Name
  Wall,                                   !- Surface Type
  ,                                       !- Construction Name
  {1b2e2617-905e-4a99-a36c-63a1a474e7fc}, !- Space Name
  Outdoors,                               !- Outside Boundary Condition
  ,                                       !- Outside Boundary Condition Object
  SunExposed,                             !- Sun Exposure
  WindExposed,                            !- Wind Exposure
  ,                                       !- View Factor to Ground
  ,                                       !- Number of Vertices
  7.105427357601e-015, -23.4635149398664, 3.9624, !- X,Y,Z Vertex 1 {m}
  7.105427357601e-015, -23.4635149398664, 0, !- X,Y,Z Vertex 2 {m}
  7.105427357601e-015, 3.5527136788005e-015, 0, !- X,Y,Z Vertex 3 {m}
  7.105427357601e-015, 3.5527136788005e-015, 3.9624; !- X,Y,Z Vertex 4 {m}

OS:Surface,
  {70194ee9-5272-4305-8af6-878599918fea}, !- Handle
  Surface 15,                             !- Name
  Wall,                                   !- Surface Type
  ,                                       !- Construction Name
  {1b2e2617-905e-4a99-a36c-63a1a474e7fc}, !- Space Name
  Surface,                                !- Outside Boundary Condition
  {f4a58422-a585-4d62-814a-f60965f97d90}, !- Outside Boundary Condition Object
  NoSun,                                  !- Sun Exposure
  NoWind,                                 !- Wind Exposure
  ,                                       !- View Factor to Ground
  ,                                       !- Number of Vertices
  -4.57199999999999, -18.8915149398664, 3.9624, !- X,Y,Z Vertex 1 {m}
  -4.57199999999999, -18.8915149398664, 0, !- X,Y,Z Vertex 2 {m}
  7.105427357601e-015, -23.4635149398664, 0, !- X,Y,Z Vertex 3 {m}
  7.105427357601e-015, -23.4635149398664, 3.9624; !- X,Y,Z Vertex 4 {m}

OS:Surface,
  {a2d68d2c-b072-40fa-b611-011fbfe25094}, !- Handle
  Surface 16,                             !- Name
  Wall,                                   !- Surface Type
  ,                                       !- Construction Name
  {1b2e2617-905e-4a99-a36c-63a1a474e7fc}, !- Space Name