
OS:Version,
  {09a43a58-07c3-42ee-b5a2-c2fd8740abaf}, !- Handle
  2.7.2;                                  !- Version Identifier

OS:SpaceType,
  {2da9ccbb-965b-4990-943b-98a511e389c1}, !- Handle
  PrimarySchool Cafeteria,                !- Name
  ,                                       !- Default Construction Set Name
  ,                                       !- Default Schedule Set Name
  {339eba50-483b-4d83-acd0-473c1e84a9e0}, !- Group Rendering Name
  ,                                       !- Design Specification Outdoor Air Object Name
  ,                                       !- Standards Template
  PrimarySchool,                          !- Standards Building Type
  Cafeteria;                              !- Standards Space Type

OS:Rendering:Color,
  {339eba50-483b-4d83-acd0-473c1e84a9e0}, !- Handle
  PrimarySchool Cafeteria,                !- Name
  31,                                     !- Rendering Red Value
  169,                                    !- Rendering Green Value
  34;                                     !- Rendering Blue Value

OS:SpaceType,
  {753feea6-e0a9-48e5-842f-9eb52ad1b4a5}, !- Handle
  PrimarySchool Classroom,                !- Name
  ,                                       !- Default Construction Set Name
  ,                                       !- Default Schedule Set Name
  {6cf02f3b-ba16-463f-8d6a-6de12caaea1f}, !- Group Rendering Name
  ,                                       !- Design Specification Outdoor Air Object Name
  ,                                       !- Standards Template
  PrimarySchool,                          !- Standards Building Type
  Classroom;                              !- Standards Space Type

OS:Rendering:Color,
  {6cf02f3b-ba16-463f-8d6a-6de12caaea1f}, !- Handle
  PrimarySchool Classroom,                !- Name
  120,                                    !- Rendering Red Value
  230,                                    !- Rendering Green Value
  199;                                    !- Rendering Blue Value

OS:SpaceType,
  {19d8e148-98ac-4783-8e76-3cd3571814df}, !- Handle
  PrimarySchool Corridor,                 !- Name
  ,                                       !- Default Construction Set Name
  ,                                       !- Default Schedule Set Name
  {328829f3-504f-4e5e-bb1b-386d65288099}, !- Group Rendering Name
  ,                                       !- Design Specification Outdoor Air Object Name
  ,                                       !- Standards Template
  PrimarySchool,                          !- Standards Building Type
  Corridor;                               !- Standards Space Type

OS:Rendering:Color,
  {328829f3-504f-4e5e-bb1b-386d65288099}, !- Handle
  PrimarySchool Corridor,                 !- Name
  169,                                    !- Rendering Red Value
  31,                                     !- Rendering Green Value
  31;                                     !- Rendering Blue Value

OS:SpaceType,
  {1fdeca1b-00f8-4893-bde5-f4f1f1f88635}, !- Handle
  PrimarySchool Gym,                      !- Name
  ,                                       !- Default Construction Set Name
  ,                                       !- Default Schedule Set Name
  {169ef7bd-8fad-443e-8dcb-25a541ae2b64}, !- Group Rendering Name
  ,                                       !- Design Specification Outdoor Air Object Name
  ,                                       !- Standards Template
  PrimarySchool,                          !- Standards Building Type
  Gym;                                    !- Standards Space Type

OS:Rendering:Color,
  {169ef7bd-8fad-443e-8dcb-25a541ae2b64}, !- Handle
  PrimarySchool Gym,                      !- Name
  154,                                    !- Rendering Red Value
  230,                                    !- Rendering Green Value
  120;                                    !- Rendering Blue Value

OS:SpaceType,
  {a3a3550b-998d-48bd-bcdd-cc66c3cd1039}, !- Handle
  PrimarySchool Kitchen,                  !- Name
  ,                                       !- Default Construction Set Name
  ,                                       !- Default Schedule Set Name
  {924cf04e-863a-4954-823b-5f47059d3bde}, !- Group Rendering Name
  ,                                       !- Design Specification Outdoor Air Object Name
  ,                                       !- Standards Template
  PrimarySchool,                          !- Standards Building Type
  Kitchen;                                !- Standards Space Type

OS:Rendering:Color,
  {924cf04e-863a-4954-823b-5f47059d3bde}, !- Handle
  PrimarySchool Kitchen,                  !- Name
  78,                                     !- Rendering Red Value
  222,                                    !- Rendering Green Value
  133;                                    !- Rendering Blue Value

OS:SpaceType,
  {085b4e70-7336-4ece-b772-2b7be7519af3}, !- Handle
  PrimarySchool Library,                  !- Name
  ,                                       !- Default Construction Set Name
  ,                                       !- Default Schedule Set Name
  {9b6b9af2-b8fd-4c91-9df1-321fc9473205}, !- Group Rendering Name
  ,                                       !- Design Specification Outdoor Air Object Name
  ,                                       !- Standards Template
  PrimarySchool,                          !- Standards Building Type
  Library;                                !- Standards Space Type

OS:Rendering:Color,
  {9b6b9af2-b8fd-4c91-9df1-321fc9473205}, !- Handle
  PrimarySchool Library,                  !- Name
  230,                                    !- Rendering Red Value
  196,                                    !- Rendering Green Value
  120;                                    !- Rendering Blue Value

OS:SpaceType,
  {ba22b938-86af-4c83-add5-25aedb31ffc9}, !- Handle
  PrimarySchool Lobby,                    !- Name
  ,                                       !- Default Construction Set Name
  ,                                       !- Default Schedule Set Name
  {a7f2c6bd-5953-48f9-97ca-e616f1353b2b}, !- Group Rendering Name
  ,                                       !- Design Specification Outdoor Air Object Name
  ,                                       !- Standards Template
  PrimarySchool,                          !- Standards Building Type
  Lobby;                                  !- Standards Space Type

OS:Rendering:Color,
  {a7f2c6bd-5953-48f9-97ca-e616f1353b2b}, !- Handle
  PrimarySchool Lobby,                    !- Name
  230,                                    !- Rendering Red Value
  157,                                    !- Rendering Green Value
  120;                                    !- Rendering Blue Value

OS:SpaceType,
  {41aeda9f-349a-46ee-a04b-d0fe86083b65}, !- Handle
  PrimarySchool Mechanical,               !- Name
  ,                                       !- Default Construction Set Name
  ,                                       !- Default Schedule Set Name
  {f8d69bb7-ca8e-463f-ba3e-76f9c64f348a}, !- Group Rendering Name
  ,                                       !- Design Specification Outdoor Air Object Name
  ,                                       !- Standards Template
  PrimarySchool,                          !- Standards Building Type
  Mechanical;                             !- Standards Space Type

OS:Rendering:Color,
  {f8d69bb7-ca8e-463f-ba3e-76f9c64f348a}, !- Handle
  PrimarySchool Mechanical,               !- Name
  41,                                     !- Rendering Red Value
  31,                                     !- Rendering Green Value
  169;                                    !- Rendering Blue Value

OS:SpaceType,
  {8a5ba576-8b1f-4872-8368-1ee97d105c16}, !- Handle
  PrimarySchool Office,                   !- Name
  ,                                       !- Default Construction Set Name
  ,                                       !- Default Schedule Set Name
  {ee65d25d-ccb7-4237-8729-d1465bcb8508}, !- Group Rendering Name
  ,                                       !- Design Specification Outdoor Air Object Name
  ,                                       !- Standards Template
  PrimarySchool,                          !- Standards Building Type
  Office;                                 !- Standards Space Type

OS:Rendering:Color,
  {ee65d25d-ccb7-4237-8729-d1465bcb8508}, !- Handle
  PrimarySchool Office,                   !- Name
  120,                                    !- Rendering Red Value
  230,                                    !- Rendering Green Value
  199;                                    !- Rendering Blue Value

OS:SpaceType,
  {0b9f4c35-74a5-44d4-94d9-bdbfdaf25687}, !- Handle
  PrimarySchool Restroom,                 !- Name
  ,                                       !- Default Construction Set Name
  ,                                       !- Default Schedule Set Name
  {a8972cfb-b20d-4c80-bd6a-7b3a73140c41}, !- Group Rendering Name
  ,                                       !- Design Specification Outdoor Air Object Name
  ,                                       !- Standards Template
  PrimarySchool,                          !- Standards Building Type
  Restroom;                               !- Standards Space Type

OS:Rendering:Color,
  {a8972cfb-b20d-4c80-bd6a-7b3a73140c41}, !- Handle
  PrimarySchool Restroom,                 !- Name
  169,                                    !- Rendering Red Value
  169,                                    !- Rendering Green Value
  31;                                     !- Rendering Blue Value

OS:Building,
  {2bbdc9a7-5195-4c32-9874-77f661b1d701}, !- Handle
  90.1-2004|PrimarySchool,                !- Name
  ,                                       !- Building Sector Type
  -90,                                    !- North Axis {deg}
  ,                                       !- Nominal Floor to Floor Height {m}
  ,                                       !- Space Type Name
  ,                                       !- Default Construction Set Name
  ;                                       !- Default Schedule Set Name

OS:Site,
  {6774b4fb-57f9-4d91-8b2d-97c6ed3a617b}, !- Handle
  Site 1,                                 !- Name
  ,                                       !- Latitude {deg}
  ,                                       !- Longitude {deg}
  ,                                       !- Time Zone {hr}
  ,                                       !- Elevation {m}
  ;                                       !- Terrain

OS:BuildingStory,
  {21bc01c6-bb1d-41a4-8b69-14d6c85fedfd}, !- Handle
  Story Ground,                           !- Name
  0,                                      !- Nominal Z Coordinate {m}
  3.9624,                                 !- Nominal Floor to Floor Height {m}
  ,                                       !- Default Construction Set Name
  ,                                       !- Default Schedule Set Name
  ;                                       !- Group Rendering Name

OS:Space,
  {d1253ccd-13e0-4236-a625-118ba65181d0}, !- Handle
  PrimarySchool Office A end_a - Story Ground, !- Name
  {8a5ba576-8b1f-4872-8368-1ee97d105c16}, !- Space Type Name
  ,                                       !- Default Construction Set Name
  ,                                       !- Default Schedule Set Name
  -0,                                     !- Direction of Relative North {deg}
  -97.5836133784766,                      !- X Origin {m}
  -7.93362710394119,                      !- Y Origin {m}
  0,                                      !- Z Origin {m}
  {21bc01c6-bb1d-41a4-8b69-14d6c85fedfd}, !- Building Story Name
  {caeac56b-d71f-452a-be7c-b1d4edc5eac2}; !- Thermal Zone Name

OS:Surface,
  {1ad91a15-1c3d-46ce-9650-bf3a88807ffd}, !- Handle
  Surface 1,                              !- Name
  Floor,                                  !- Surface Type
  ,                                       !- Construction Name
  {d1253ccd-13e0-4236-a625-118ba65181d0}, !- Space Name
  Ground,                                 !- Outside Boundary Condition
  ,                                       !- Outside Boundary Condition Object
  NoSun,                                  !- Sun Exposure
  NoWind,                                 !- Wind Exposure
  ,                                       !- View Factor to Ground
  ,                                       !- Number of Vertices
  2.8421709430404e-014, -2.66453525910038e-015, 0, !- X,Y,Z Vertex 1 {m}
  2.8421709430404e-014, 4.572, 0,         !- X,Y,Z Vertex 2 {m}
  4.57200000000003, 4.572, 0,             !- X,Y,Z Vertex 3 {m}
  4.57200000000003, -2.66453525910038e-015, 0; !- X,Y,Z Vertex 4 {m}

OS:Surface,
  {d7b04fba-e1f5-479f-95c7-8138aa69ef06}, !- Handle
  Surface 2,                              !- Name
  Wall,                                   !- Surface Type
  ,                                       !- Construction Name
  {d1253ccd-13e0-4236-a625-118ba65181d0}, !- Space Name
  Outdoors,                               !- Outside Boundary Condition
  ,                                       !- Outside Boundary Condition Object
  SunExposed,                             !- Sun Exposure
  WindExposed,                            !- Wind Exposure
  ,                                       !- View Factor to Ground
  ,                                       !- Number of Vertices
  2.8421709430404e-014, 4.572, 3.9624,    !- X,Y,Z Vertex 1 {m}
  2.8421709430404e-014, 4.572, 0,         !- X,Y,Z Vertex 2 {m}
  2.8421709430404e-014, -2.66453525910038e-015, 0, !- X,Y,Z Vertex 3 {m}
  2.8421709430404e-014, -2.66453525910038e-015, 3.9624; !- X,Y,Z Vertex 4 {m}

OS:Surface,
  {d192fc7d-dcea-40be-ae9a-07c6298e55a8}, !- Handle
  Surface 3,                              !- Name
  Wall,                                   !- Surface Type
  ,                                       !- Construction Name
  {d1253ccd-13e0-4236-a625-118ba65181d0}, !- Space Name
  Surface,                                !- Outside Boundary Condition
  {e816da5b-95b8-40f2-b051-4b88f95ebda9}, !- Outside Boundary Condition Object
  NoSun,                                  !- Sun Exposure
  NoWind,                                 !- Wind Exposure
  ,                                       !- View Factor to Ground
  ,                                       !- Number of Vertices
  4.57200000000003, 4.572, 3.9624,        !- X,Y,Z Vertex 1 {m}
  4.57200000000003, 4.572, 0,             !- X,Y,Z Vertex 2 {m}
  2.8421709430404e-014, 4.572, 0,         !- X,Y,Z Vertex 3 {m}
  2.8421709430404e-014, 4.572, 3.9624;    !- X,Y,Z Vertex 4 {m}

OS:Surface,
  {ad9a2a92-233f-4973-995c-3cab7272e2ae}, !- Handle
  Surface 4,                              !- Name
  Wall,                                   !- Surface Type
  ,                                       !- Construction Name
  {d1253ccd-13e0-4236-a625-118ba65181d0}, !- Space Name
  Surface,                                !- Outside Boundary Condition
  {72fd0da4-b1ba-4569-857d-acfb2dce7a88}, !- Outside Boundary Condition Object
  NoSun,                                  !- Sun Exposure
  NoWind,                                 !- Wind Exposure
  ,                                       !- View Factor to Ground
  ,                                       !- Number of Vertices
  4.57200000000003, -2.66453525910038e-015, 3.9624, !- X,Y,Z Vertex 1 {m}
  4.57200000000003, -2.66453525910038e-015, 0, !- X,Y,Z Vertex 2 {m}
  4.57200000000003, 4.572, 0,             !- X,Y,Z Vertex 3 {m}
  4.57200000000003, 4.572, 3.9624;        !- X,Y,Z Vertex 4 {m}

OS:Surface,
  {b18f3221-c21f-4c91-a867-cf3d704f58c5}, !- Handle
  Surface 5,                              !- Name
  Wall,                                   !- Surface Type
  ,                                       !- Construction Name
  {d1253ccd-13e0-4236-a625-118ba65181d0}, !- Space Name
  Adiabatic,                              !- Outside Boundary Condition
  ,                                       !- Outside Boundary Condition Object
  NoSun,                                  !- Sun Exposure
  NoWind,                                 !- Wind Exposure
  ,                                       !- View Factor to Ground
  ,                                       !- Number of Vertices
  2.8421709430404e-014, -2.66453525910038e-015, 3.9624, !- X,Y,Z Vertex 1 {m}
  2.8421709430404e-014, -2.66453525910038e-015, 0, !- X,Y,Z Vertex 2 {m}
  4.57200000000003, -2.66453525910038e-015, 0, !- X,Y,Z Vertex 3 {m}
  4.57200000000003, -2.66453525910038e-015, 3.9624; !- X,Y,Z Vertex 4 {m}

OS:Surface,
  {19c67f15-13fa-4a43-a680-4196c38ca092}, !- Handle
  Surface 6,                              !- Name
  RoofCeiling,                            !- Surface Type
  ,                                       !- Construction Name
  {d1253ccd-13e0-4236-a625-118ba65181d0}, !- Space Name
  Surface,                                !- Outside Boundary Condition
  {654d5cdb-e271-4dd6-94fb-178bb38d49a7}, !- Outside Boundary Condition Object
  NoSun,                                  !- Sun Exposure
  NoWind,                                 !- Wind Exposure
  ,                                       !- View Factor to Ground
  ,                                       !- Number of Vertices
  4.57200000000003, -2.66453525910038e-015, 3.9624, !- X,Y,Z Vertex 1 {m}
  4.57200000000003, 4.572, 3.9624,        !- X,Y,Z Vertex 2 {m}
  2.8421709430404e-014, 4.572, 3.9624,    !- X,Y,Z Vertex 3 {m}
  2.8421709430404e-014, -2.66453525910038e-015, 3.9624; !- X,Y,Z Vertex 4 {m}

OS:ThermalZone,
  {caeac56b-d71f-452a-be7c-b1d4edc5eac2}, !- Handle
  Zone PrimarySchool Office A end_a - Story Ground, !- Name
  1,                                      !- Multiplier
  ,                                       !- Ceiling Height {m}
  ,                                       !- Volume {m3}
  ,                                       !- Floor Area {m2}
  ,                                       !- Zone Inside Convection Algorithm
  ,                                       !- Zone Outside Convection Algorithm
  ,                                       !- Zone Conditioning Equipment List Name
  {83491027-70cb-4150-a59e-49a48e750af7}, !- Zone Air Inlet Port List
  {9a80d27d-7083-424c-ac2a-752cdacedcf1}, !- Zone Air Exhaust Port List
  {e33b7df7-cc03-4f0a-b88c-3cc418e973f8}, !- Zone Air Node Name
  {746331b5-91d1-4b43-8b5c-9e232f6f84d1}, !- Zone Return Air Port List
  ,                                       !- Primary Daylighting Control Name
  ,                                       !- Fraction of Zone Controlled by Primary Daylighting Control
  ,                                       !- Secondary Daylighting Control Name
  ,                                       !- Fraction of Zone Controlled by Secondary Daylighting Control
  ,                                       !- Illuminance Map Name
  ,                                       !- Group Rendering Name
  ,                                       !- Thermostat Name
  No;                                     !- Use Ideal Air Loads

OS:Node,
  {5b7369a3-0e5a-471a-9218-639e341555b3}, !- Handle
  Node 1,                                 !- Name
  {e33b7df7-cc03-4f0a-b88c-3cc418e973f8}, !- Inlet Port
  ;                                       !- Outlet Port

OS:Connection,
  {e33b7df7-cc03-4f0a-b88c-3cc418e973f8}, !- Handle
  {edb1f2ae-f16e-41ae-9d44-3f5079ded72e}, !- Name
  {caeac56b-d71f-452a-be7c-b1d4edc5eac2}, !- Source Object
  11,                                     !- Outlet Port
  {5b7369a3-0e5a-471a-9218-639e341555b3}, !- Target Object
  2;                                      !- Inlet Port

OS:PortList,
  {83491027-70cb-4150-a59e-49a48e750af7}, !- Handle
  {0a3dc86c-b286-4598-b3eb-490394baa791}, !- Name
  {caeac56b-d71f-452a-be7c-b1d4edc5eac2}; !- HVAC Component

OS:PortList,
  {9a80d27d-7083-424c-ac2a-752cdacedcf1}, !- Handle
  {ee5ff4ef-6fb7-4516-b68b-92cd22811873}, !- Name
  {caeac56b-d71f-452a-be7c-b1d4edc5eac2}; !- HVAC Component

OS:PortList,
  {746331b5-91d1-4b43-8b5c-9e232f6f84d1}, !- Handle
  {eccab029-0c36-4c7c-80fc-5be037083e6a}, !- Name
  {caeac56b-d71f-452a-be7c-b1d4edc5eac2}; !- HVAC Component

OS:Sizing:Zone,
  {48ce0b05-3449-4b23-84cb-6d7dcc95d346}, !- Handle
  {caeac56b-d71f-452a-be7c-b1d4edc5eac2}, !- Zone or ZoneList Name
  SupplyAirTemperature,                   !- Zone Cooling Design Supply Air Temperature Input Method
  14,                                     !- Zone Cooling Design Supply Air Temperature {C}
  11.11,                                  !- Zone Cooling Design Supply Air Temperature Difference {deltaC}
  SupplyAirTemperature,                   !- Zone Heating Design Supply Air Temperature Input Method
  40,                                     !- Zone Heating Design Supply Air Temperature {C}
  11.11,                                  !- Zone Heating Design Supply Air Temperature Difference {deltaC}
  0.0085,                                 !- Zone Cooling Design Supply Air Humidity Ratio {kg-H2O/kg-air}
  0.008,                                  !- Zone Heating Design Supply Air Humidity Ratio {kg-H2O/kg-air}
  ,                                       !- Zone Heating Sizing Factor
  ,                                       !- Zone Cooling Sizing Factor
  DesignDay,                              !- Cooling Design Air Flow Method
  ,                                       !- Cooling Design Air Flow Rate {m3/s}
  ,                                       !- Cooling Minimum Air Flow per Zone Floor Area {m3/s-m2}
  ,                                       !- Cooling Minimum Air Flow {m3/s}
  ,                                       !- Cooling Minimum Air Flow Fraction
  DesignDay,                              !- Heating Design Air Flow Method
  ,                                       !- Heating Design Air Flow Rate {m3/s}
  ,                                       !- Heating Maximum Air Flow per Zone Floor Area {m3/s-m2}
  ,                                       !- Heating Maximum Air Flow {m3/s}
  ,                                       !- Heating Maximum Air Flow Fraction
  ,                                       !- Design Zone Air Distribution Effectiveness in Cooling Mode
  ,                                       !- Design Zone Air Distribution Effectiveness in Heating Mode
  No,                                     !- Account for Dedicated Outdoor Air System
  NeutralSupplyAir,                       !- Dedicated Outdoor Air System Control Strategy
  autosize,                               !- Dedicated Outdoor Air Low Setpoint Temperature for Design {C}
  autosize;                               !- Dedicated Outdoor Air High Setpoint Temperature for Design {C}

OS:ZoneHVAC:EquipmentList,
  {94280172-9122-409b-aab1-b8f7fea35354}, !- Handle
  Zone HVAC Equipment List 1,             !- Name
  {caeac56b-d71f-452a-be7c-b1d4edc5eac2}; !- Thermal Zone

OS:Space,
  {37f56076-64c3-4225-b856-8925a40d5a6d}, !- Handle
  PrimarySchool Office B end_a - Story Ground, !- Name
  {8a5ba576-8b1f-4872-8368-1ee97d105c16}, !- Space Type Name
  ,                                       !- Default Construction Set Name
  ,                                       !- Default Schedule Set Name
  -0,                                     !- Direction of Relative North {deg}
  -97.5836133784766,                      !- X Origin {m}
  -3.36162710394119,                      !- Y Origin {m}
  0,                                      !- Z Origin {m}
  {21bc01c6-bb1d-41a4-8b69-14d6c85fedfd}, !- Building Story Name
  {e8076270-e465-4476-b9f5-51495a7aede2}; !- Thermal Zone Name

OS:Surface,
  {ffe149e4-e191-440f-bf87-f2102639152f}, !- Handle
  Surface 7,                              !- Name
  Floor,                                  !- Surface Type
  ,                                       !- Construction Name
  {37f56076-64c3-4225-b856-8925a40d5a6d}, !- Space Name
  Ground,                                 !- Outside Boundary Condition
  ,                                       !- Outside Boundary Condition Object
  NoSun,                                  !- Sun Exposure
  NoWind,                                 !- Wind Exposure
  ,                                       !- View Factor to Ground
  ,                                       !- Number of Vertices
  2.8421709430404e-014, -2.22044604925031e-015, 0, !- X,Y,Z Vertex 1 {m}
  2.8421709430404e-014, 6.72325420788238, 0, !- X,Y,Z Vertex 2 {m}
  4.57200000000003, 6.72325420788238, 0,  !- X,Y,Z Vertex 3 {m}
  4.57200000000003, -2.22044604925031e-015, 0; !- X,Y,Z Vertex 4 {m}

OS:Surface,
  {2545e1d6-027f-42ef-b200-e3ed24e976d8}, !- Handle
  Surface 8,                              !- Name
  Wall,                                   !- Surface Type
  ,                                       !- Construction Name
  {37f56076-64c3-4225-b856-8925a40d5a6d}, !- Space Name
  Outdoors,                               !- Outside Boundary Condition
  ,                                       !- Outside Boundary Condition Object
  SunExposed,                             !- Sun Exposure
  WindExposed,                            !- Wind Exposure
  ,                                       !- View Factor to Ground
  ,                                       !- Number of Vertices
  2.8421709430404e-014, 6.72325420788238, 3.9624, !- X,Y,Z Vertex 1 {m}
  2.8421709430404e-014, 6.72325420788238, 0, !- X,Y,Z Vertex 2 {m}
  2.8421709430404e-014, -2.22044604925031e-015, 0, !- X,Y,Z Vertex 3 {m}
  2.8421709430404e-014, -2.22044604925031e-015, 3.9624; !- X,Y,Z Vertex 4 {m}

OS:Surface,
  {929cee96-f2ee-48b1-962d-738640b43f63}, !- Handle
  Surface 9,                              !- Name
  Wall,                                   !- Surface Type
  ,                                       !- Construction Name
  {37f56076-64c3-4225-b856-8925a40d5a6d}, !- Space Name
  Surface,                                !- Outside Boundary Condition
  {8e19e64f-3d40-4f2e-ace1-45444e947de9}, !- Outside Boundary Condition Object
  NoSun,                                  !- Sun Exposure
  NoWind,                                 !- Wind Exposure
  ,                                       !- View Factor to Ground
  ,                                       !- Number of Vertices
  4.57200000000003, 6.72325420788238, 3.9624, !- X,Y,Z Vertex 1 {m}
  4.57200000000003, 6.72325420788238, 0,  !- X,Y,Z Vertex 2 {m}
  2.8421709430404e-014, 6.72325420788238, 0, !- X,Y,Z Vertex 3 {m}
  2.8421709430404e-014, 6.72325420788238, 3.9624; !- X,Y,Z Vertex 4 {m}

OS:Surface,
  {0e488378-f074-4bda-bc53-b46829930517}, !- Handle
  Surface 10,                             !- Name
  Wall,                                   !- Surface Type
  ,                                       !- Construction Name
  {37f56076-64c3-4225-b856-8925a40d5a6d}, !- Space Name
  Surface,                                !- Outside Boundary Condition
  {25932a61-ef34-489e-834d-2ab8d013f443}, !- Outside Boundary Condition Object
  NoSun,                                  !- Sun Exposure
  NoWind,                                 !- Wind Exposure
  ,                                       !- View Factor to Ground
  ,                                       !- Number of Vertices
  4.57200000000003, -2.22044604925031e-015, 3.9624, !- X,Y,Z Vertex 1 {m}
  4.57200000000003, -2.22044604925031e-015, 0, !- X,Y,Z Vertex 2 {m}
  4.57200000000003, 6.72325420788238, 0,  !- X,Y,Z Vertex 3 {m}
  4.57200000000003, 6.72325420788238, 3.9624; !- X,Y,Z Vertex 4 {m}

OS:Surface,
  {e816da5b-95b8-40f2-b051-4b88f95ebda9}, !- Handle
  Surface 11,                             !- Name
  Wall,                                   !- Surface Type
  ,                                       !- Construction Name
  {37f56076-64c3-4225-b856-8925a40d5a6d}, !- Space Name
  Surface,                                !- Outside Boundary Condition
  {d192fc7d-dcea-40be-ae9a-07c6298e55a8}, !- Outside Boundary Condition Object
  NoSun,                                  !- Sun Exposure
  NoWind,                                 !- Wind Exposure
  ,                                       !- View Factor to Ground
  ,                                       !- Number of Vertices
  2.8421709430404e-014, -2.22044604925031e-015, 3.9624, !- X,Y,Z Vertex 1 {m}
  2.8421709430404e-014, -2.22044604925031e-015, 0, !- X,Y,Z Vertex 2 {m}
  4.57200000000003, -2.22044604925031e-015, 0, !- X,Y,Z Vertex 3 {m}
  4.57200000000003, -2.22044604925031e-015, 3.9624; !- X,Y,Z Vertex 4 {m}

OS:Surface,
  {6d064f89-26cd-40d9-be7f-0312136d2fb8}, !- Handle
  Surface 12,                             !- Name
  RoofCeiling,                            !- Surface Type
  ,                                       !- Construction Name
  {37f56076-64c3-4225-b856-8925a40d5a6d}, !- Space Name
  Surface,                                !- Outside Boundary Condition
  {e257ccdc-1f54-440e-b5ac-aef96925a844}, !- Outside Boundary Condition Object
  NoSun,                                  !- Sun Exposure
  NoWind,                                 !- Wind Exposure
  ,                                       !- View Factor to Ground
  ,                                       !- Number of Vertices
  4.57200000000003, -2.22044604925031e-015, 3.9624, !- X,Y,Z Vertex 1 {m}
  4.57200000000003, 6.72325420788238, 3.9624, !- X,Y,Z Vertex 2 {m}
  2.8421709430404e-014, 6.72325420788238, 3.9624, !- X,Y,Z Vertex 3 {m}
  2.8421709430404e-014, -2.22044604925031e-015, 3.9624; !- X,Y,Z Vertex 4 {m}

OS:ThermalZone,
  {e8076270-e465-4476-b9f5-51495a7aede2}, !- Handle
  Zone PrimarySchool Office B end_a - Story Ground, !- Name
  1,                                      !- Multiplier
  ,                                       !- Ceiling Height {m}
  ,                                       !- Volume {m3}
  ,                                       !- Floor Area {m2}
  ,                                       !- Zone Inside Convection Algorithm
  ,                                       !- Zone Outside Convection Algorithm
  ,                                       !- Zone Conditioning Equipment List Name
  {c3c76409-64e9-47fa-92af-77a6c8c91e9c}, !- Zone Air Inlet Port List