
OS:Version,
  {60e6e87f-b40a-4020-bf38-f3bf5e1efeef}, !- Handle
  2.7.2;                                  !- Version Identifier

OS:SpaceType,
  {e88f7f71-3e47-4fdc-a8ca-dec5bcfe971a}, !- Handle
  PrimarySchool Cafeteria,                !- Name
  ,                                       !- Default Construction Set Name
  ,                                       !- Default Schedule Set Name
  {6c075401-84c6-4b85-9b4d-b08ab19e1120}, !- Group Rendering Name
  ,                                       !- Design Specification Outdoor Air Object Name
  ,                                       !- Standards Template
  PrimarySchool,                          !- Standards Building Type
  Cafeteria;                              !- Standards Space Type

OS:Rendering:Color,
  {6c075401-84c6-4b85-9b4d-b08ab19e1120}, !- Handle
  PrimarySchool Cafeteria,                !- Name
  31,                                     !- Rendering Red Value
  169,                                    !- Rendering Green Value
  34;                                     !- Rendering Blue Value

OS:SpaceType,
  {54640e7b-5cf6-43e9-a8b2-1f31c1286eb0}, !- Handle
  PrimarySchool Classroom,                !- Name
  ,                                       !- Default Construction Set Name
  ,                                       !- Default Schedule Set Name
  {64ff3e0f-f3b9-4869-bd8c-8a2159b15164}, !- Group Rendering Name
  ,                                       !- Design Specification Outdoor Air Object Name
  ,                                       !- Standards Template
  PrimarySchool,                          !- Standards Building Type
  Classroom;                              !- Standards Space Type

OS:Rendering:Color,
  {64ff3e0f-f3b9-4869-bd8c-8a2159b15164}, !- Handle
  PrimarySchool Classroom,                !- Name
  120,                                    !- Rendering Red Value
  230,                                    !- Rendering Green Value
  199;                                    !- Rendering Blue Value

OS:SpaceType,
  {86688478-1d9e-408d-a92e-d93dcae5ec9b}, !- Handle
  PrimarySchool Corridor,                 !- Name
  ,                                       !- Default Construction Set Name
  ,                                       !- Default Schedule Set Name
  {efdc2817-2d4b-4279-a84b-53358ed3c757}, !- Group Rendering Name
  ,                                       !- Design Specification Outdoor Air Object Name
  ,                                       !- Standards Template
  PrimarySchool,                          !- Standards Building Type
  Corridor;                               !- Standards Space Type

OS:Rendering:Color,
  {efdc2817-2d4b-4279-a84b-53358ed3c757}, !- Handle
  PrimarySchool Corridor,                 !- Name
  169,                                    !- Rendering Red Value
  31,                                     !- Rendering Green Value
  31;                                     !- Rendering Blue Value

OS:SpaceType,
  {6a290dd6-2bf5-4d89-97ec-d325c8248091}, !- Handle
  PrimarySchool Gym,                      !- Name
  ,                                       !- Default Construction Set Name
  ,                                       !- Default Schedule Set Name
  {e38a2075-55ca-4566-837a-eb838a867239}, !- Group Rendering Name
  ,                                       !- Design Specification Outdoor Air Object Name
  ,                                       !- Standards Template
  PrimarySchool,                          !- Standards Building Type
  Gym;                                    !- Standards Space Type

OS:Rendering:Color,
  {e38a2075-55ca-4566-837a-eb838a867239}, !- Handle
  PrimarySchool Gym,                      !- Name
  154,                                    !- Rendering Red Value
  230,                                    !- Rendering Green Value
  120;                                    !- Rendering Blue Value

OS:SpaceType,
  {21a44011-8bc6-4cd7-ae45-769d4c2605aa}, !- Handle
  PrimarySchool Kitchen,                  !- Name
  ,                                       !- Default Construction Set Name
  ,                                       !- Default Schedule Set Name
  {a048d37e-9293-499f-8ef4-a3aa0755fd47}, !- Group Rendering Name
  ,                                       !- Design Specification Outdoor Air Object Name
  ,                                       !- Standards Template
  PrimarySchool,                          !- Standards Building Type
  Kitchen;                                !- Standards Space Type

OS:Rendering:Color,
  {a048d37e-9293-499f-8ef4-a3aa0755fd47}, !- Handle
  PrimarySchool Kitchen,                  !- Name
  78,                                     !- Rendering Red Value
  222,                                    !- Rendering Green Value
  133;                                    !- Rendering Blue Value

OS:SpaceType,
  {937b3bdb-b647-4681-8560-8d0c0b3a74c9}, !- Handle
  PrimarySchool Library,                  !- Name
  ,                                       !- Default Construction Set Name
  ,                                       !- Default Schedule Set Name
  {b954daf8-cf20-40c5-a294-2cd48125a72c}, !- Group Rendering Name
  ,                                       !- Design Specification Outdoor Air Object Name
  ,                                       !- Standards Template
  PrimarySchool,                          !- Standards Building Type
  Library;                                !- Standards Space Type

OS:Rendering:Color,
  {b954daf8-cf20-40c5-a294-2cd48125a72c}, !- Handle
  PrimarySchool Library,                  !- Name
  230,                                    !- Rendering Red Value
  196,                                    !- Rendering Green Value
  120;                                    !- Rendering Blue Value

OS:SpaceType,
  {f3e6bfd5-475f-4067-a202-b1ea621cdd5c}, !- Handle
  PrimarySchool Lobby,                    !- Name
  ,                                       !- Default Construction Set Name
  ,                                       !- Default Schedule Set Name
  {c3e4e3b9-0aab-4c88-b0d7-baa1270f4932}, !- Group Rendering Name
  ,                                       !- Design Specification Outdoor Air Object Name
  ,                                       !- Standards Template
  PrimarySchool,                          !- Standards Building Type
  Lobby;                                  !- Standards Space Type

OS:Rendering:Color,
  {c3e4e3b9-0aab-4c88-b0d7-baa1270f4932}, !- Handle
  PrimarySchool Lobby,                    !- Name
  230,                                    !- Rendering Red Value
  157,                                    !- Rendering Green Value
  120;                                    !- Rendering Blue Value

OS:SpaceType,
  {4e7639ff-2f94-42c0-bb5a-e09e91217e3a}, !- Handle
  PrimarySchool Mechanical,               !- Name
  ,                                       !- Default Construction Set Name
  ,                                       !- Default Schedule Set Name
  {f90dfc1b-bba6-445e-8360-22404b9e2846}, !- Group Rendering Name
  ,                                       !- Design Specification Outdoor Air Object Name
  ,                                       !- Standards Template
  PrimarySchool,                          !- Standards Building Type
  Mechanical;                             !- Standards Space Type

OS:Rendering:Color,
  {f90dfc1b-bba6-445e-8360-22404b9e2846}, !- Handle
  PrimarySchool Mechanical,               !- Name
  41,                                     !- Rendering Red Value
  31,                                     !- Rendering Green Value
  169;                                    !- Rendering Blue Value

OS:SpaceType,
  {d87ea220-f92d-4241-9369-dccf33bd4056}, !- Handle
  PrimarySchool Office,                   !- Name
  ,                                       !- Default Construction Set Name
  ,                                       !- Default Schedule Set Name
  {c8ff0d25-6997-41b6-b64b-d2ee6708a8df}, !- Group Rendering Name
  ,                                       !- Design Specification Outdoor Air Object Name
  ,                                       !- Standards Template
  PrimarySchool,                          !- Standards Building Type
  Office;                                 !- Standards Space Type

OS:Rendering:Color,
  {c8ff0d25-6997-41b6-b64b-d2ee6708a8df}, !- Handle
  PrimarySchool Office,                   !- Name
  120,                                    !- Rendering Red Value
  230,                                    !- Rendering Green Value
  199;                                    !- Rendering Blue Value

OS:SpaceType,
  {769d1e58-29b1-4cc0-b4e2-bd63a4440bd9}, !- Handle
  PrimarySchool Restroom,                 !- Name
  ,                                       !- Default Construction Set Name
  ,                                       !- Default Schedule Set Name
  {bdd13099-f6be-4c0e-b261-d8bc6d975859}, !- Group Rendering Name
  ,                                       !- Design Specification Outdoor Air Object Name
  ,                                       !- Standards Template
  PrimarySchool,                          !- Standards Building Type
  Restroom;                               !- Standards Space Type

OS:Rendering:Color,
  {bdd13099-f6be-4c0e-b261-d8bc6d975859}, !- Handle
  PrimarySchool Restroom,                 !- Name
  169,                                    !- Rendering Red Value
  169,                                    !- Rendering Green Value
  31;                                     !- Rendering Blue Value

OS:Building,
  {be01e7fd-25da-4783-8fc3-3771707c2f76}, !- Handle
  90.1-2004|PrimarySchool,                !- Name
  ,                                       !- Building Sector Type
  -90,                                    !- North Axis {deg}
  ,                                       !- Nominal Floor to Floor Height {m}
  ,                                       !- Space Type Name
  ,                                       !- Default Construction Set Name
  ;                                       !- Default Schedule Set Name

OS:Site,
  {5a05c256-96db-4b07-b084-56ee0da7333a}, !- Handle
  Site 1,                                 !- Name
  ,                                       !- Latitude {deg}
  ,                                       !- Longitude {deg}
  ,                                       !- Time Zone {hr}
  ,                                       !- Elevation {m}
  ;                                       !- Terrain

OS:BuildingStory,
  {e781eeb7-b2d1-41ec-a297-942834873b13}, !- Handle
  Story Ground,                           !- Name
  0,                                      !- Nominal Z Coordinate {m}
  3.9624,                                 !- Nominal Floor to Floor Height {m}
  ,                                       !- Default Construction Set Name
  ,                                       !- Default Schedule Set Name
  ;                                       !- Group Rendering Name

OS:Space,
  {5e317805-bf47-4ef8-8352-2045ecbec254}, !- Handle
  PrimarySchool Office A end_a - Story Ground, !- Name
  {d87ea220-f92d-4241-9369-dccf33bd4056}, !- Space Type Name
  ,                                       !- Default Construction Set Name
  ,                                       !- Default Schedule Set Name
  -0,                                     !- Direction of Relative North {deg}
  -97.5836133784766,                      !- X Origin {m}
  -7.93362710394119,                      !- Y Origin {m}
  0,                                      !- Z Origin {m}
  {e781eeb7-b2d1-41ec-a297-942834873b13}, !- Building Story Name
  {a89b7423-5868-4e65-a04a-19e1859a1ca0}; !- Thermal Zone Name

OS:Surface,
  {a8904aa3-1312-437d-9e7f-b97597b1b9f7}, !- Handle
  Surface 1,                              !- Name
  Floor,                                  !- Surface Type
  ,                                       !- Construction Name
  {5e317805-bf47-4ef8-8352-2045ecbec254}, !- Space Name
  Ground,                                 !- Outside Boundary Condition
  ,                                       !- Outside Boundary Condition Object
  NoSun,                                  !- Sun Exposure
  NoWind,                                 !- Wind Exposure
  ,                                       !- View Factor to Ground
  ,                                       !- Number of Vertices
  2.8421709430404e-014, -2.66453525910038e-015, 0, !- X,Y,Z Vertex 1 {m}
  2.8421709430404e-014, 4.572, 0,         !- X,Y,Z Vertex 2 {m}
  4.57200000000003, 4.572, 0,             !- X,Y,Z Vertex 3 {m}
  4.57200000000003, -2.66453525910038e-015, 0; !- X,Y,Z Vertex 4 {m}

OS:Surface,
  {daaf26e5-79ff-417d-a956-32b98517fe02}, !- Handle
  Surface 2,                              !- Name
  Wall,                                   !- Surface Type
  ,                                       !- Construction Name
  {5e317805-bf47-4ef8-8352-2045ecbec254}, !- Space Name
  Outdoors,                               !- Outside Boundary Condition
  ,                                       !- Outside Boundary Condition Object
  SunExposed,                             !- Sun Exposure
  WindExposed,                            !- Wind Exposure
  ,                                       !- View Factor to Ground
  ,                                       !- Number of Vertices
  2.8421709430404e-014, 4.572, 3.9624,    !- X,Y,Z Vertex 1 {m}
  2.8421709430404e-014, 4.572, 0,         !- X,Y,Z Vertex 2 {m}
  2.8421709430404e-014, -2.66453525910038e-015, 0, !- X,Y,Z Vertex 3 {m}
  2.8421709430404e-014, -2.66453525910038e-015, 3.9624; !- X,Y,Z Vertex 4 {m}

OS:Surface,
  {ef412c60-82c9-429c-808d-70bcb784dd4a}, !- Handle
  Surface 3,                              !- Name
  Wall,                                   !- Surface Type
  ,                                       !- Construction Name
  {5e317805-bf47-4ef8-8352-2045ecbec254}, !- Space Name
  Surface,                                !- Outside Boundary Condition
  {2a745dac-6f48-4eb6-97b9-68d229030cb7}, !- Outside Boundary Condition Object
  NoSun,                                  !- Sun Exposure
  NoWind,                                 !- Wind Exposure
  ,                                       !- View Factor to Ground
  ,                                       !- Number of Vertices
  4.57200000000003, 4.572, 3.9624,        !- X,Y,Z Vertex 1 {m}
  4.57200000000003, 4.572, 0,             !- X,Y,Z Vertex 2 {m}
  2.8421709430404e-014, 4.572, 0,         !- X,Y,Z Vertex 3 {m}
  2.8421709430404e-014, 4.572, 3.9624;    !- X,Y,Z Vertex 4 {m}

OS:Surface,
  {c2922dee-238d-4769-87c7-2393ae8a04a5}, !- Handle
  Surface 4,                              !- Name
  Wall,                                   !- Surface Type
  ,                                       !- Construction Name
  {5e317805-bf47-4ef8-8352-2045ecbec254}, !- Space Name
  Surface,                                !- Outside Boundary Condition
  {a81b5f3e-570d-41be-9255-5fba8ae63975}, !- Outside Boundary Condition Object
  NoSun,                                  !- Sun Exposure
  NoWind,                                 !- Wind Exposure
  ,                                       !- View Factor to Ground
  ,                                       !- Number of Vertices
  4.57200000000003, -2.66453525910038e-015, 3.9624, !- X,Y,Z Vertex 1 {m}
  4.57200000000003, -2.66453525910038e-015, 0, !- X,Y,Z Vertex 2 {m}
  4.57200000000003, 4.572, 0,             !- X,Y,Z Vertex 3 {m}
  4.57200000000003, 4.572, 3.9624;        !- X,Y,Z Vertex 4 {m}

OS:Surface,
  {778e0872-22be-445d-8c19-733c9558aab2}, !- Handle
  Surface 5,                              !- Name
  Wall,                                   !- Surface Type
  ,                                       !- Construction Name
  {5e317805-bf47-4ef8-8352-2045ecbec254}, !- Space Name
  Adiabatic,                              !- Outside Boundary Condition
  ,                                       !- Outside Boundary Condition Object
  NoSun,                                  !- Sun Exposure
  NoWind,                                 !- Wind Exposure
  ,                                       !- View Factor to Ground
  ,                                       !- Number of Vertices
  2.8421709430404e-014, -2.66453525910038e-015, 3.9624, !- X,Y,Z Vertex 1 {m}
  2.8421709430404e-014, -2.66453525910038e-015, 0, !- X,Y,Z Vertex 2 {m}
  4.57200000000003, -2.66453525910038e-015, 0, !- X,Y,Z Vertex 3 {m}
  4.57200000000003, -2.66453525910038e-015, 3.9624; !- X,Y,Z Vertex 4 {m}

OS:Surface,
  {1d8cdcef-0fea-4ee7-bd79-c01c318f72cf}, !- Handle
  Surface 6,                              !- Name
  RoofCeiling,                            !- Surface Type
  ,                                       !- Construction Name
  {5e317805-bf47-4ef8-8352-2045ecbec254}, !- Space Name
  Surface,                                !- Outside Boundary Condition
  {dc9534ae-f9d1-4f16-b8ab-dcea22a88dfb}, !- Outside Boundary Condition Object
  NoSun,                                  !- Sun Exposure
  NoWind,                                 !- Wind Exposure
  ,                                       !- View Factor to Ground
  ,                                       !- Number of Vertices
  4.57200000000003, -2.66453525910038e-015, 3.9624, !- X,Y,Z Vertex 1 {m}
  4.57200000000003, 4.572, 3.9624,        !- X,Y,Z Vertex 2 {m}
  2.8421709430404e-014, 4.572, 3.9624,    !- X,Y,Z Vertex 3 {m}
  2.8421709430404e-014, -2.66453525910038e-015, 3.9624; !- X,Y,Z Vertex 4 {m}

OS:ThermalZone,
  {a89b7423-5868-4e65-a04a-19e1859a1ca0}, !- Handle
  Zone PrimarySchool Office A end_a - Story Ground, !- Name
  1,                                      !- Multiplier
  ,                                       !- Ceiling Height {m}
  ,                                       !- Volume {m3}
  ,                                       !- Floor Area {m2}
  ,                                       !- Zone Inside Convection Algorithm
  ,                                       !- Zone Outside Convection Algorithm
  ,                                       !- Zone Conditioning Equipment List Name
  {bffbe16f-a1ec-4c87-881d-bbc5d39dcf17}, !- Zone Air Inlet Port List
  {62a9272e-d8aa-4a25-965f-f0b76d782544}, !- Zone Air Exhaust Port List
  {915df65d-0ade-4b3e-bc49-ac3f5b95ab9c}, !- Zone Air Node Name
  {0b1f5fb1-fd5b-4fde-8649-b0a33bd7fa3f}, !- Zone Return Air Port List
  ,                                       !- Primary Daylighting Control Name
  ,                                       !- Fraction of Zone Controlled by Primary Daylighting Control
  ,                                       !- Secondary Daylighting Control Name
  ,                                       !- Fraction of Zone Controlled by Secondary Daylighting Control
  ,                                       !- Illuminance Map Name
  ,                                       !- Group Rendering Name
  ,                                       !- Thermostat Name
  No;                                     !- Use Ideal Air Loads

OS:Node,
  {9d9b6521-26ab-4b73-a23c-2dac72120167}, !- Handle
  Node 1,                                 !- Name
  {915df65d-0ade-4b3e-bc49-ac3f5b95ab9c}, !- Inlet Port
  ;                                       !- Outlet Port

OS:Connection,
  {915df65d-0ade-4b3e-bc49-ac3f5b95ab9c}, !- Handle
  {652c7f8f-bcef-46f2-b8d2-bcdd7e6a8a36}, !- Name
  {a89b7423-5868-4e65-a04a-19e1859a1ca0}, !- Source Object
  11,                                     !- Outlet Port
  {9d9b6521-26ab-4b73-a23c-2dac72120167}, !- Target Object
  2;                                      !- Inlet Port

OS:PortList,
  {bffbe16f-a1ec-4c87-881d-bbc5d39dcf17}, !- Handle
  {b5de227d-b5c1-420d-924f-ae276ff8d542}, !- Name
  {a89b7423-5868-4e65-a04a-19e1859a1ca0}; !- HVAC Component

OS:PortList,
  {62a9272e-d8aa-4a25-965f-f0b76d782544}, !- Handle
  {ad81e9f4-f3c2-46f0-91a8-4fb5d2a576fc}, !- Name
  {a89b7423-5868-4e65-a04a-19e1859a1ca0}; !- HVAC Component

OS:PortList,
  {0b1f5fb1-fd5b-4fde-8649-b0a33bd7fa3f}, !- Handle
  {6bc1dcf4-dd33-49ba-b988-03e22aa3fb84}, !- Name
  {a89b7423-5868-4e65-a04a-19e1859a1ca0}; !- HVAC Component

OS:Sizing:Zone,
  {fcb6fc9b-d969-400a-9f18-50f86f6b51d0}, !- Handle
  {a89b7423-5868-4e65-a04a-19e1859a1ca0}, !- Zone or ZoneList Name
  SupplyAirTemperature,                   !- Zone Cooling Design Supply Air Temperature Input Method
  14,                                     !- Zone Cooling Design Supply Air Temperature {C}
  11.11,                                  !- Zone Cooling Design Supply Air Temperature Difference {deltaC}
  SupplyAirTemperature,                   !- Zone Heating Design Supply Air Temperature Input Method
  40,                                     !- Zone Heating Design Supply Air Temperature {C}
  11.11,                                  !- Zone Heating Design Supply Air Temperature Difference {deltaC}
  0.0085,                                 !- Zone Cooling Design Supply Air Humidity Ratio {kg-H2O/kg-air}
  0.008,                                  !- Zone Heating Design Supply Air Humidity Ratio {kg-H2O/kg-air}
  ,                                       !- Zone Heating Sizing Factor
  ,                                       !- Zone Cooling Sizing Factor
  DesignDay,                              !- Cooling Design Air Flow Method
  ,                                       !- Cooling Design Air Flow Rate {m3/s}
  ,                                       !- Cooling Minimum Air Flow per Zone Floor Area {m3/s-m2}
  ,                                       !- Cooling Minimum Air Flow {m3/s}
  ,                                       !- Cooling Minimum Air Flow Fraction
  DesignDay,                              !- Heating Design Air Flow Method
  ,                                       !- Heating Design Air Flow Rate {m3/s}
  ,                                       !- Heating Maximum Air Flow per Zone Floor Area {m3/s-m2}
  ,                                       !- Heating Maximum Air Flow {m3/s}
  ,                                       !- Heating Maximum Air Flow Fraction
  ,                                       !- Design Zone Air Distribution Effectiveness in Cooling Mode
  ,                                       !- Design Zone Air Distribution Effectiveness in Heating Mode
  No,                                     !- Account for Dedicated Outdoor Air System
  NeutralSupplyAir,                       !- Dedicated Outdoor Air System Control Strategy
  autosize,                               !- Dedicated Outdoor Air Low Setpoint Temperature for Design {C}
  autosize;                               !- Dedicated Outdoor Air High Setpoint Temperature for Design {C}

OS:ZoneHVAC:EquipmentList,
  {245b5542-b6a5-4813-8f72-ee95a3c4dfd0}, !- Handle
  Zone HVAC Equipment List 1,             !- Name
  {a89b7423-5868-4e65-a04a-19e1859a1ca0}; !- Thermal Zone

OS:Space,
  {dfc00fa5-27b7-4b02-996f-f3c79105b179}, !- Handle
  PrimarySchool Office B end_a - Story Ground, !- Name
  {d87ea220-f92d-4241-9369-dccf33bd4056}, !- Space Type Name
  ,                                       !- Default Construction Set Name
  ,                                       !- Default Schedule Set Name
  -0,                                     !- Direction of Relative North {deg}
  -97.5836133784766,                      !- X Origin {m}
  -3.36162710394119,                      !- Y Origin {m}
  0,                                      !- Z Origin {m}
  {e781eeb7-b2d1-41ec-a297-942834873b13}, !- Building Story Name
  {f63fe965-720a-41d3-b566-f368879936be}; !- Thermal Zone Name

OS:Surface,
  {bc33d5e5-1e42-42b6-8e49-46556098bfff}, !- Handle
  Surface 7,                              !- Name
  Floor,                                  !- Surface Type
  ,                                       !- Construction Name
  {dfc00fa5-27b7-4b02-996f-f3c79105b179}, !- Space Name
  Ground,                                 !- Outside Boundary Condition
  ,                                       !- Outside Boundary Condition Object
  NoSun,                                  !- Sun Exposure
  NoWind,                                 !- Wind Exposure
  ,                                       !- View Factor to Ground
  ,                                       !- Number of Vertices
  2.8421709430404e-014, -2.22044604925031e-015, 0, !- X,Y,Z Vertex 1 {m}
  2.8421709430404e-014, 6.72325420788238, 0, !- X,Y,Z Vertex 2 {m}
  4.57200000000003, 6.72325420788238, 0,  !- X,Y,Z Vertex 3 {m}
  4.57200000000003, -2.22044604925031e-015, 0; !- X,Y,Z Vertex 4 {m}

OS:Surface,
  {1b950dc1-fd46-46fb-878a-ab964bded0bd}, !- Handle
  Surface 8,                              !- Name
  Wall,                                   !- Surface Type
  ,                                       !- Construction Name
  {dfc00fa5-27b7-4b02-996f-f3c79105b179}, !- Space Name
  Outdoors,                               !- Outside Boundary Condition
  ,                                       !- Outside Boundary Condition Object
  SunExposed,                             !- Sun Exposure
  WindExposed,                            !- Wind Exposure
  ,                                       !- View Factor to Ground
  ,                                       !- Number of Vertices
  2.8421709430404e-014, 6.72325420788238, 3.9624, !- X,Y,Z Vertex 1 {m}
  2.8421709430404e-014, 6.72325420788238, 0, !- X,Y,Z Vertex 2 {m}
  2.8421709430404e-014, -2.22044604925031e-015, 0, !- X,Y,Z Vertex 3 {m}
  2.8421709430404e-014, -2.22044604925031e-015, 3.9624; !- X,Y,Z Vertex 4 {m}

OS:Surface,
  {2458a672-2cf7-4acd-91b6-6e9d677e797f}, !- Handle
  Surface 9,                              !- Name
  Wall,                                   !- Surface Type
  ,                                       !- Construction Name
  {dfc00fa5-27b7-4b02-996f-f3c79105b179}, !- Space Name
  Surface,                                !- Outside Boundary Condition
  {293c66a5-a9c8-4d59-95da-b5219481984b}, !- Outside Boundary Condition Object
  NoSun,                                  !- Sun Exposure
  NoWind,                                 !- Wind Exposure
  ,                                       !- View Factor to Ground
  ,                                       !- Number of Vertices
  4.57200000000003, 6.72325420788238, 3.9624, !- X,Y,Z Vertex 1 {m}
  4.57200000000003, 6.72325420788238, 0,  !- X,Y,Z Vertex 2 {m}
  2.8421709430404e-014, 6.72325420788238, 0, !- X,Y,Z Vertex 3 {m}
  2.8421709430404e-014, 6.72325420788238, 3.9624; !- X,Y,Z Vertex 4 {m}

OS:Surface,
  {c05a416c-e043-470f-b821-d6790e98c07d}, !- Handle
  Surface 10,                             !- Name
  Wall,                                   !- Surface Type
  ,                                       !- Construction Name
  {dfc00fa5-27b7-4b02-996f-f3c79105b179}, !- Space Name
  Surface,                                !- Outside Boundary Condition
  {d0b299db-cf31-4c84-86d5-045e365ee4c2}, !- Outside Boundary Condition Object
  NoSun,                                  !- Sun Exposure
  NoWind,                                 !- Wind Exposure
  ,                                       !- View Factor to Ground
  ,                                       !- Number of Vertices
  4.57200000000003, -2.22044604925031e-015, 3.9624, !- X,Y,Z Vertex 1 {m}
  4.57200000000003, -2.22044604925031e-015, 0, !- X,Y,Z Vertex 2 {m}
  4.57200000000003, 6.72325420788238, 0,  !- X,Y,Z Vertex 3 {m}
  4.57200000000003, 6.72325420788238, 3.9624; !- X,Y,Z Vertex 4 {m}

OS:Surface,
  {2a745dac-6f48-4eb6-97b9-68d229030cb7}, !- Handle
  Surface 11,                             !- Name
  Wall,                                   !- Surface Type
  ,                                       !- Construction Name
  {dfc00fa5-27b7-4b02-996f-f3c79105b179}, !- Space Name
  Surface,                                !- Outside Boundary Condition
  {ef412c60-82c9-429c-808d-70bcb784dd4a}, !- Outside Boundary Condition Object
  NoSun,                                  !- Sun Exposure
  NoWind,                                 !- Wind Exposure
  ,                                       !- View Factor to Ground
  ,                                       !- Number of Vertices
  2.8421709430404e-014, -2.22044604925031e-015, 3.9624, !- X,Y,Z Vertex 1 {m}
  2.8421709430404e-014, -2.22044604925031e-015, 0, !- X,Y,Z Vertex 2 {m}
  4.57200000000003, -2.22044604925031e-015, 0, !- X,Y,Z Vertex 3 {m}
  4.57200000000003, -2.22044604925031e-015, 3.9624; !- X,Y,Z Vertex 4 {m}

OS:Surface,
  {c9850daf-39e8-47c3-9779-9701bea09b42}, !- Handle
  Surface 12,                             !- Name
  RoofCeiling,                            !- Surface Type
  ,                                       !- Construction Name
  {dfc00fa5-27b7-4b02-996f-f3c79105b179}, !- Space Name
  Surface,                                !- Outside Boundary Condition
  {33396bc0-295d-4a23-be9f-efc0bc9d8502}, !- Outside Boundary Condition Object
  NoSun,                                  !- Sun Exposure
  NoWind,                                 !- Wind Exposure
  ,                                       !- View Factor to Ground
  ,                                       !- Number of Vertices
  4.57200000000003, -2.22044604925031e-015, 3.9624, !- X,Y,Z Vertex 1 {m}
  4.57200000000003, 6.72325420788238, 3.9624, !- X,Y,Z Vertex 2 {m}
  2.8421709430404e-014, 6.72325420788238, 3.9624, !- X,Y,Z Vertex 3 {m}
  2.8421709430404e-014, -2.22044604925031e-015, 3.9624; !- X,Y,Z Vertex 4 {m}

OS:ThermalZone,
  {f63fe965-720a-41d3-b566-f368879936be}, !- Handle
  Zone PrimarySchool Office B end_a - Story Ground, !- Name
  1,                                      !- Multiplier
  ,                                       !- Ceiling Height {m}
  ,                                       !- Volume {m3}
  ,                                       !- Floor Area {m2}
  ,                                       !- Zone Inside Convection Algorithm
  ,                                       !- Zone Outside Convection Algorithm
  ,                                       !- Zone Conditioning Equipment List Name
  {3c30e98c-1cf1-493f-afd3-acdd536f7983}, !- Zone Air Inlet Port List