
OS:Version,
  {c43c69c6-34fc-4705-a838-7a8f18d1fc5f}, !- Handle
  2.7.2;                                  !- Version Identifier

OS:SpaceType,
  {2413f72e-5aac-499e-820b-6aa13ed1b821}, !- Handle
  PrimarySchool Cafeteria,                !- Name
  ,                                       !- Default Construction Set Name
  ,                                       !- Default Schedule Set Name
  {834bc2f7-df14-49c2-b94d-def9f70e1c22}, !- Group Rendering Name
  ,                                       !- Design Specification Outdoor Air Object Name
  ,                                       !- Standards Template
  PrimarySchool,                          !- Standards Building Type
  Cafeteria;                              !- Standards Space Type

OS:Rendering:Color,
  {834bc2f7-df14-49c2-b94d-def9f70e1c22}, !- Handle
  PrimarySchool Cafeteria,                !- Name
  31,                                     !- Rendering Red Value
  169,                                    !- Rendering Green Value
  34;                                     !- Rendering Blue Value

OS:SpaceType,
  {1aded402-8488-40da-a731-af48a3814454}, !- Handle
  PrimarySchool Classroom,                !- Name
  ,                                       !- Default Construction Set Name
  ,                                       !- Default Schedule Set Name
  {6f9c3a6a-abc7-4032-8133-8aa87a6b0f82}, !- Group Rendering Name
  ,                                       !- Design Specification Outdoor Air Object Name
  ,                                       !- Standards Template
  PrimarySchool,                          !- Standards Building Type
  Classroom;                              !- Standards Space Type

OS:Rendering:Color,
  {6f9c3a6a-abc7-4032-8133-8aa87a6b0f82}, !- Handle
  PrimarySchool Classroom,                !- Name
  120,                                    !- Rendering Red Value
  230,                                    !- Rendering Green Value
  199;                                    !- Rendering Blue Value

OS:SpaceType,
  {8eb57168-0533-43ba-8ea6-9e01591797cb}, !- Handle
  PrimarySchool Corridor,                 !- Name
  ,                                       !- Default Construction Set Name
  ,                                       !- Default Schedule Set Name
  {418ae34f-2ab4-43f9-a960-ed26304b01eb}, !- Group Rendering Name
  ,                                       !- Design Specification Outdoor Air Object Name
  ,                                       !- Standards Template
  PrimarySchool,                          !- Standards Building Type
  Corridor;                               !- Standards Space Type

OS:Rendering:Color,
  {418ae34f-2ab4-43f9-a960-ed26304b01eb}, !- Handle
  PrimarySchool Corridor,                 !- Name
  169,                                    !- Rendering Red Value
  31,                                     !- Rendering Green Value
  31;                                     !- Rendering Blue Value

OS:SpaceType,
  {3e73f1e8-d2ad-4bd1-a681-19a4780707e9}, !- Handle
  PrimarySchool Gym,                      !- Name
  ,                                       !- Default Construction Set Name
  ,                                       !- Default Schedule Set Name
  {1c7b346b-c8c5-4ecd-a350-667b0166180b}, !- Group Rendering Name
  ,                                       !- Design Specification Outdoor Air Object Name
  ,                                       !- Standards Template
  PrimarySchool,                          !- Standards Building Type
  Gym;                                    !- Standards Space Type

OS:Rendering:Color,
  {1c7b346b-c8c5-4ecd-a350-667b0166180b}, !- Handle
  PrimarySchool Gym,                      !- Name
  154,                                    !- Rendering Red Value
  230,                                    !- Rendering Green Value
  120;                                    !- Rendering Blue Value

OS:SpaceType,
  {c677d010-bf66-452b-8bae-8479c5b7875e}, !- Handle
  PrimarySchool Kitchen,                  !- Name
  ,                                       !- Default Construction Set Name
  ,                                       !- Default Schedule Set Name
  {682ce07d-01dc-4817-958a-27390841ddd5}, !- Group Rendering Name
  ,                                       !- Design Specification Outdoor Air Object Name
  ,                                       !- Standards Template
  PrimarySchool,                          !- Standards Building Type
  Kitchen;                                !- Standards Space Type

OS:Rendering:Color,
  {682ce07d-01dc-4817-958a-27390841ddd5}, !- Handle
  PrimarySchool Kitchen,                  !- Name
  78,                                     !- Rendering Red Value
  222,                                    !- Rendering Green Value
  133;                                    !- Rendering Blue Value

OS:SpaceType,
  {5e65193b-ed31-44fe-888f-03bc0ad1af64}, !- Handle
  PrimarySchool Library,                  !- Name
  ,                                       !- Default Construction Set Name
  ,                                       !- Default Schedule Set Name
  {0cb91efb-c26d-4897-a012-358a90222a76}, !- Group Rendering Name
  ,                                       !- Design Specification Outdoor Air Object Name
  ,                                       !- Standards Template
  PrimarySchool,                          !- Standards Building Type
  Library;                                !- Standards Space Type

OS:Rendering:Color,
  {0cb91efb-c26d-4897-a012-358a90222a76}, !- Handle
  PrimarySchool Library,                  !- Name
  230,                                    !- Rendering Red Value
  196,                                    !- Rendering Green Value
  120;                                    !- Rendering Blue Value

OS:SpaceType,
  {b2a30253-5b00-401a-a2a0-cf0512145ba7}, !- Handle
  PrimarySchool Lobby,                    !- Name
  ,                                       !- Default Construction Set Name
  ,                                       !- Default Schedule Set Name
  {2704058f-a6e7-409c-83f3-966a295856a4}, !- Group Rendering Name
  ,                                       !- Design Specification Outdoor Air Object Name
  ,                                       !- Standards Template
  PrimarySchool,                          !- Standards Building Type
  Lobby;                                  !- Standards Space Type

OS:Rendering:Color,
  {2704058f-a6e7-409c-83f3-966a295856a4}, !- Handle
  PrimarySchool Lobby,                    !- Name
  230,                                    !- Rendering Red Value
  157,                                    !- Rendering Green Value
  120;                                    !- Rendering Blue Value

OS:SpaceType,
  {922494dc-37fe-4237-b88f-450119b86373}, !- Handle
  PrimarySchool Mechanical,               !- Name
  ,                                       !- Default Construction Set Name
  ,                                       !- Default Schedule Set Name
  {868450b0-8b04-4cc2-bc60-c5a883859561}, !- Group Rendering Name
  ,                                       !- Design Specification Outdoor Air Object Name
  ,                                       !- Standards Template
  PrimarySchool,                          !- Standards Building Type
  Mechanical;                             !- Standards Space Type

OS:Rendering:Color,
  {868450b0-8b04-4cc2-bc60-c5a883859561}, !- Handle
  PrimarySchool Mechanical,               !- Name
  41,                                     !- Rendering Red Value
  31,                                     !- Rendering Green Value
  169;                                    !- Rendering Blue Value

OS:SpaceType,
  {79a901a3-5cda-4cf5-a580-a9b10f4503ee}, !- Handle
  PrimarySchool Office,                   !- Name
  ,                                       !- Default Construction Set Name
  ,                                       !- Default Schedule Set Name
  {ee817555-95bd-4d41-9830-4188d21fddf2}, !- Group Rendering Name
  ,                                       !- Design Specification Outdoor Air Object Name
  ,                                       !- Standards Template
  PrimarySchool,                          !- Standards Building Type
  Office;                                 !- Standards Space Type

OS:Rendering:Color,
  {ee817555-95bd-4d41-9830-4188d21fddf2}, !- Handle
  PrimarySchool Office,                   !- Name
  120,                                    !- Rendering Red Value
  230,                                    !- Rendering Green Value
  199;                                    !- Rendering Blue Value

OS:SpaceType,
  {3c89dbca-13b5-4f21-91fa-228094664562}, !- Handle
  PrimarySchool Restroom,                 !- Name
  ,                                       !- Default Construction Set Name
  ,                                       !- Default Schedule Set Name
  {143bfe75-0672-4e9d-a4ab-023587106e77}, !- Group Rendering Name
  ,                                       !- Design Specification Outdoor Air Object Name
  ,                                       !- Standards Template
  PrimarySchool,                          !- Standards Building Type
  Restroom;                               !- Standards Space Type

OS:Rendering:Color,
  {143bfe75-0672-4e9d-a4ab-023587106e77}, !- Handle
  PrimarySchool Restroom,                 !- Name
  169,                                    !- Rendering Red Value
  169,                                    !- Rendering Green Value
  31;                                     !- Rendering Blue Value

OS:Building,
  {6c2e8514-581e-4b18-8218-5ea1aff36606}, !- Handle
  90.1-2004|PrimarySchool,                !- Name
  ,                                       !- Building Sector Type
  -90,                                    !- North Axis {deg}
  ,                                       !- Nominal Floor to Floor Height {m}
  ,                                       !- Space Type Name
  ,                                       !- Default Construction Set Name
  ;                                       !- Default Schedule Set Name

OS:Site,
  {499cc405-ab0f-485c-91d6-c7ff598f721d}, !- Handle
  Site 1,                                 !- Name
  ,                                       !- Latitude {deg}
  ,                                       !- Longitude {deg}
  ,                                       !- Time Zone {hr}
  ,                                       !- Elevation {m}
  ;                                       !- Terrain

OS:BuildingStory,
  {56bb1397-b2a8-45f6-a315-641ef730a5b7}, !- Handle
  Story Ground,                           !- Name
  0,                                      !- Nominal Z Coordinate {m}
  3.9624,                                 !- Nominal Floor to Floor Height {m}
  ,                                       !- Default Construction Set Name
  ,                                       !- Default Schedule Set Name
  ;                                       !- Group Rendering Name

OS:Space,
  {4d4524c9-5152-4328-9e8f-76615082b5e6}, !- Handle
  PrimarySchool Office A end_a - Story Ground, !- Name
  {79a901a3-5cda-4cf5-a580-a9b10f4503ee}, !- Space Type Name
  ,                                       !- Default Construction Set Name
  ,                                       !- Default Schedule Set Name
  -0,                                     !- Direction of Relative North {deg}
  -97.5836133784766,                      !- X Origin {m}
  -7.93362710394119,                      !- Y Origin {m}
  0,                                      !- Z Origin {m}
  {56bb1397-b2a8-45f6-a315-641ef730a5b7}, !- Building Story Name
  {e5c876d7-f307-4922-8241-22571c223344}; !- Thermal Zone Name

OS:Surface,
  {841aa233-505b-4f85-80d5-117caa38071a}, !- Handle
  Surface 1,                              !- Name
  Floor,                                  !- Surface Type
  ,                                       !- Construction Name
  {4d4524c9-5152-4328-9e8f-76615082b5e6}, !- Space Name
  Ground,                                 !- Outside Boundary Condition
  ,                                       !- Outside Boundary Condition Object
  NoSun,                                  !- Sun Exposure
  NoWind,                                 !- Wind Exposure
  ,                                       !- View Factor to Ground
  ,                                       !- Number of Vertices
  2.8421709430404e-014, -2.66453525910038e-015, 0, !- X,Y,Z Vertex 1 {m}
  2.8421709430404e-014, 4.572, 0,         !- X,Y,Z Vertex 2 {m}
  4.57200000000003, 4.572, 0,             !- X,Y,Z Vertex 3 {m}
  4.57200000000003, -2.66453525910038e-015, 0; !- X,Y,Z Vertex 4 {m}

OS:Surface,
  {6cbdd7e0-5ae1-4851-bcbf-1684f6cce2f0}, !- Handle
  Surface 2,                              !- Name
  Wall,                                   !- Surface Type
  ,                                       !- Construction Name
  {4d4524c9-5152-4328-9e8f-76615082b5e6}, !- Space Name
  Outdoors,                               !- Outside Boundary Condition
  ,                                       !- Outside Boundary Condition Object
  SunExposed,                             !- Sun Exposure
  WindExposed,                            !- Wind Exposure
  ,                                       !- View Factor to Ground
  ,                                       !- Number of Vertices
  2.8421709430404e-014, 4.572, 3.9624,    !- X,Y,Z Vertex 1 {m}
  2.8421709430404e-014, 4.572, 0,         !- X,Y,Z Vertex 2 {m}
  2.8421709430404e-014, -2.66453525910038e-015, 0, !- X,Y,Z Vertex 3 {m}
  2.8421709430404e-014, -2.66453525910038e-015, 3.9624; !- X,Y,Z Vertex 4 {m}

OS:Surface,
  {579e12b6-29dc-4476-8ec8-591318a40715}, !- Handle
  Surface 3,                              !- Name
  Wall,                                   !- Surface Type
  ,                                       !- Construction Name
  {4d4524c9-5152-4328-9e8f-76615082b5e6}, !- Space Name
  Surface,                                !- Outside Boundary Condition
  {26ded305-9583-4bf9-80c3-46cccef1f178}, !- Outside Boundary Condition Object
  NoSun,                                  !- Sun Exposure
  NoWind,                                 !- Wind Exposure
  ,                                       !- View Factor to Ground
  ,                                       !- Number of Vertices
  4.57200000000003, 4.572, 3.9624,        !- X,Y,Z Vertex 1 {m}
  4.57200000000003, 4.572, 0,             !- X,Y,Z Vertex 2 {m}
  2.8421709430404e-014, 4.572, 0,         !- X,Y,Z Vertex 3 {m}
  2.8421709430404e-014, 4.572, 3.9624;    !- X,Y,Z Vertex 4 {m}

OS:Surface,
  {c82b85fe-a237-473f-aa37-15ad91542829}, !- Handle
  Surface 4,                              !- Name
  Wall,                                   !- Surface Type
  ,                                       !- Construction Name
  {4d4524c9-5152-4328-9e8f-76615082b5e6}, !- Space Name
  Surface,                                !- Outside Boundary Condition
  {00e3bf42-256b-44a6-bd54-dcbb8930d8f9}, !- Outside Boundary Condition Object
  NoSun,                                  !- Sun Exposure
  NoWind,                                 !- Wind Exposure
  ,                                       !- View Factor to Ground
  ,                                       !- Number of Vertices
  4.57200000000003, -2.66453525910038e-015, 3.9624, !- X,Y,Z Vertex 1 {m}
  4.57200000000003, -2.66453525910038e-015, 0, !- X,Y,Z Vertex 2 {m}
  4.57200000000003, 4.572, 0,             !- X,Y,Z Vertex 3 {m}
  4.57200000000003, 4.572, 3.9624;        !- X,Y,Z Vertex 4 {m}

OS:Surface,
  {1a1cf7f2-2e15-4a5c-8c45-6d615adaddec}, !- Handle
  Surface 5,                              !- Name
  Wall,                                   !- Surface Type
  ,                                       !- Construction Name
  {4d4524c9-5152-4328-9e8f-76615082b5e6}, !- Space Name
  Adiabatic,                              !- Outside Boundary Condition
  ,                                       !- Outside Boundary Condition Object
  NoSun,                                  !- Sun Exposure
  NoWind,                                 !- Wind Exposure
  ,                                       !- View Factor to Ground
  ,                                       !- Number of Vertices
  2.8421709430404e-014, -2.66453525910038e-015, 3.9624, !- X,Y,Z Vertex 1 {m}
  2.8421709430404e-014, -2.66453525910038e-015, 0, !- X,Y,Z Vertex 2 {m}
  4.57200000000003, -2.66453525910038e-015, 0, !- X,Y,Z Vertex 3 {m}
  4.57200000000003, -2.66453525910038e-015, 3.9624; !- X,Y,Z Vertex 4 {m}

OS:Surface,
  {503b92e7-1e3a-44a2-981b-09f9c69723b1}, !- Handle
  Surface 6,                              !- Name
  RoofCeiling,                            !- Surface Type
  ,                                       !- Construction Name
  {4d4524c9-5152-4328-9e8f-76615082b5e6}, !- Space Name
  Surface,                                !- Outside Boundary Condition
  {66fbbe5f-2915-4be9-9772-db71e3af4cd6}, !- Outside Boundary Condition Object
  NoSun,                                  !- Sun Exposure
  NoWind,                                 !- Wind Exposure
  ,                                       !- View Factor to Ground
  ,                                       !- Number of Vertices
  4.57200000000003, -2.66453525910038e-015, 3.9624, !- X,Y,Z Vertex 1 {m}
  4.57200000000003, 4.572, 3.9624,        !- X,Y,Z Vertex 2 {m}
  2.8421709430404e-014, 4.572, 3.9624,    !- X,Y,Z Vertex 3 {m}
  2.8421709430404e-014, -2.66453525910038e-015, 3.9624; !- X,Y,Z Vertex 4 {m}

OS:ThermalZone,
  {e5c876d7-f307-4922-8241-22571c223344}, !- Handle
  Zone PrimarySchool Office A end_a - Story Ground, !- Name
  1,                                      !- Multiplier
  ,                                       !- Ceiling Height {m}
  ,                                       !- Volume {m3}
  ,                                       !- Floor Area {m2}
  ,                                       !- Zone Inside Convection Algorithm
  ,                                       !- Zone Outside Convection Algorithm
  ,                                       !- Zone Conditioning Equipment List Name
  {31108b0e-bf89-4592-bb19-69f8d0f75a5c}, !- Zone Air Inlet Port List
  {650c5dea-77e4-4951-9ec7-3ada34a24043}, !- Zone Air Exhaust Port List
  {8629d4d4-a55d-45f9-b6c9-4fb8247b7722}, !- Zone Air Node Name
  {73592125-fad8-4e1c-9c5b-3512c4e90272}, !- Zone Return Air Port List
  ,                                       !- Primary Daylighting Control Name
  ,                                       !- Fraction of Zone Controlled by Primary Daylighting Control
  ,                                       !- Secondary Daylighting Control Name
  ,                                       !- Fraction of Zone Controlled by Secondary Daylighting Control
  ,                                       !- Illuminance Map Name
  ,                                       !- Group Rendering Name
  ,                                       !- Thermostat Name
  No;                                     !- Use Ideal Air Loads

OS:Node,
  {15401036-7de8-4412-a099-1680d0819aeb}, !- Handle
  Node 1,                                 !- Name
  {8629d4d4-a55d-45f9-b6c9-4fb8247b7722}, !- Inlet Port
  ;                                       !- Outlet Port

OS:Connection,
  {8629d4d4-a55d-45f9-b6c9-4fb8247b7722}, !- Handle
  {72573aad-c4a0-4351-b4a7-81f8a0d4e13f}, !- Name
  {e5c876d7-f307-4922-8241-22571c223344}, !- Source Object
  11,                                     !- Outlet Port
  {15401036-7de8-4412-a099-1680d0819aeb}, !- Target Object
  2;                                      !- Inlet Port

OS:PortList,
  {31108b0e-bf89-4592-bb19-69f8d0f75a5c}, !- Handle
  {f5ec531d-95b8-4aa0-8bb4-2be9e7d15ba9}, !- Name
  {e5c876d7-f307-4922-8241-22571c223344}; !- HVAC Component

OS:PortList,
  {650c5dea-77e4-4951-9ec7-3ada34a24043}, !- Handle
  {2284ac8e-9757-48c0-a4a5-d11a3ba184ec}, !- Name
  {e5c876d7-f307-4922-8241-22571c223344}; !- HVAC Component

OS:PortList,
  {73592125-fad8-4e1c-9c5b-3512c4e90272}, !- Handle
  {5b80caf3-55fd-40d4-9229-6468a5f5f5f2}, !- Name
  {e5c876d7-f307-4922-8241-22571c223344}; !- HVAC Component

OS:Sizing:Zone,
  {cb4e19b6-49fe-4cb4-9859-695c086d9aa7}, !- Handle
  {e5c876d7-f307-4922-8241-22571c223344}, !- Zone or ZoneList Name
  SupplyAirTemperature,                   !- Zone Cooling Design Supply Air Temperature Input Method
  14,                                     !- Zone Cooling Design Supply Air Temperature {C}
  11.11,                                  !- Zone Cooling Design Supply Air Temperature Difference {deltaC}
  SupplyAirTemperature,                   !- Zone Heating Design Supply Air Temperature Input Method
  40,                                     !- Zone Heating Design Supply Air Temperature {C}
  11.11,                                  !- Zone Heating Design Supply Air Temperature Difference {deltaC}
  0.0085,                                 !- Zone Cooling Design Supply Air Humidity Ratio {kg-H2O/kg-air}
  0.008,                                  !- Zone Heating Design Supply Air Humidity Ratio {kg-H2O/kg-air}
  ,                                       !- Zone Heating Sizing Factor
  ,                                       !- Zone Cooling Sizing Factor
  DesignDay,                              !- Cooling Design Air Flow Method
  ,                                       !- Cooling Design Air Flow Rate {m3/s}
  ,                                       !- Cooling Minimum Air Flow per Zone Floor Area {m3/s-m2}
  ,                                       !- Cooling Minimum Air Flow {m3/s}
  ,                                       !- Cooling Minimum Air Flow Fraction
  DesignDay,                              !- Heating Design Air Flow Method
  ,                                       !- Heating Design Air Flow Rate {m3/s}
  ,                                       !- Heating Maximum Air Flow per Zone Floor Area {m3/s-m2}
  ,                                       !- Heating Maximum Air Flow {m3/s}
  ,                                       !- Heating Maximum Air Flow Fraction
  ,                                       !- Design Zone Air Distribution Effectiveness in Cooling Mode
  ,                                       !- Design Zone Air Distribution Effectiveness in Heating Mode
  No,                                     !- Account for Dedicated Outdoor Air System
  NeutralSupplyAir,                       !- Dedicated Outdoor Air System Control Strategy
  autosize,                               !- Dedicated Outdoor Air Low Setpoint Temperature for Design {C}
  autosize;                               !- Dedicated Outdoor Air High Setpoint Temperature for Design {C}

OS:ZoneHVAC:EquipmentList,
  {964a751f-ba9a-43b7-a736-659ca862dd60}, !- Handle
  Zone HVAC Equipment List 1,             !- Name
  {e5c876d7-f307-4922-8241-22571c223344}; !- Thermal Zone

OS:Space,
  {cfd8a1bc-a03f-46e8-b78d-96b4edbf19da}, !- Handle
  PrimarySchool Office B end_a - Story Ground, !- Name
  {79a901a3-5cda-4cf5-a580-a9b10f4503ee}, !- Space Type Name
  ,                                       !- Default Construction Set Name
  ,                                       !- Default Schedule Set Name
  -0,                                     !- Direction of Relative North {deg}
  -97.5836133784766,                      !- X Origin {m}
  -3.36162710394119,                      !- Y Origin {m}
  0,                                      !- Z Origin {m}
  {56bb1397-b2a8-45f6-a315-641ef730a5b7}, !- Building Story Name
  {3b742acc-76cd-43a3-a5bf-9600f8f01972}; !- Thermal Zone Name

OS:Surface,
  {b10850aa-a7b9-467d-855b-7155d4f1f2b9}, !- Handle
  Surface 7,                              !- Name
  Floor,                                  !- Surface Type
  ,                                       !- Construction Name
  {cfd8a1bc-a03f-46e8-b78d-96b4edbf19da}, !- Space Name
  Ground,                                 !- Outside Boundary Condition
  ,                                       !- Outside Boundary Condition Object
  NoSun,                                  !- Sun Exposure
  NoWind,                                 !- Wind Exposure
  ,                                       !- View Factor to Ground
  ,                                       !- Number of Vertices
  2.8421709430404e-014, -2.22044604925031e-015, 0, !- X,Y,Z Vertex 1 {m}
  2.8421709430404e-014, 6.72325420788238, 0, !- X,Y,Z Vertex 2 {m}
  4.57200000000003, 6.72325420788238, 0,  !- X,Y,Z Vertex 3 {m}
  4.57200000000003, -2.22044604925031e-015, 0; !- X,Y,Z Vertex 4 {m}

OS:Surface,
  {a145143e-dfbc-4039-9663-808c9339de05}, !- Handle
  Surface 8,                              !- Name
  Wall,                                   !- Surface Type
  ,                                       !- Construction Name
  {cfd8a1bc-a03f-46e8-b78d-96b4edbf19da}, !- Space Name
  Outdoors,                               !- Outside Boundary Condition
  ,                                       !- Outside Boundary Condition Object
  SunExposed,                             !- Sun Exposure
  WindExposed,                            !- Wind Exposure
  ,                                       !- View Factor to Ground
  ,                                       !- Number of Vertices
  2.8421709430404e-014, 6.72325420788238, 3.9624, !- X,Y,Z Vertex 1 {m}
  2.8421709430404e-014, 6.72325420788238, 0, !- X,Y,Z Vertex 2 {m}
  2.8421709430404e-014, -2.22044604925031e-015, 0, !- X,Y,Z Vertex 3 {m}
  2.8421709430404e-014, -2.22044604925031e-015, 3.9624; !- X,Y,Z Vertex 4 {m}

OS:Surface,
  {e0cef8ef-2f80-41e7-9fd7-98dd5df0cadc}, !- Handle
  Surface 9,                              !- Name
  Wall,                                   !- Surface Type
  ,                                       !- Construction Name
  {cfd8a1bc-a03f-46e8-b78d-96b4edbf19da}, !- Space Name
  Surface,                                !- Outside Boundary Condition
  {3b2264e9-70d2-4960-8f87-c873916ab1c2}, !- Outside Boundary Condition Object
  NoSun,                                  !- Sun Exposure
  NoWind,                                 !- Wind Exposure
  ,                                       !- View Factor to Ground
  ,                                       !- Number of Vertices
  4.57200000000003, 6.72325420788238, 3.9624, !- X,Y,Z Vertex 1 {m}
  4.57200000000003, 6.72325420788238, 0,  !- X,Y,Z Vertex 2 {m}
  2.8421709430404e-014, 6.72325420788238, 0, !- X,Y,Z Vertex 3 {m}
  2.8421709430404e-014, 6.72325420788238, 3.9624; !- X,Y,Z Vertex 4 {m}

OS:Surface,
  {0c755e7b-c4b7-4cc9-8774-eaf997367d1d}, !- Handle
  Surface 10,                             !- Name
  Wall,                                   !- Surface Type
  ,                                       !- Construction Name
  {cfd8a1bc-a03f-46e8-b78d-96b4edbf19da}, !- Space Name
  Surface,                                !- Outside Boundary Condition
  {11bcfe13-618c-4500-832e-9b20d6f14404}, !- Outside Boundary Condition Object
  NoSun,                                  !- Sun Exposure
  NoWind,                                 !- Wind Exposure
  ,                                       !- View Factor to Ground
  ,                                       !- Number of Vertices
  4.57200000000003, -2.22044604925031e-015, 3.9624, !- X,Y,Z Vertex 1 {m}
  4.57200000000003, -2.22044604925031e-015, 0, !- X,Y,Z Vertex 2 {m}
  4.57200000000003, 6.72325420788238, 0,  !- X,Y,Z Vertex 3 {m}
  4.57200000000003, 6.72325420788238, 3.9624; !- X,Y,Z Vertex 4 {m}

OS:Surface,
  {26ded305-9583-4bf9-80c3-46cccef1f178}, !- Handle
  Surface 11,                             !- Name
  Wall,                                   !- Surface Type
  ,                                       !- Construction Name
  {cfd8a1bc-a03f-46e8-b78d-96b4edbf19da}, !- Space Name
  Surface,                                !- Outside Boundary Condition
  {579e12b6-29dc-4476-8ec8-591318a40715}, !- Outside Boundary Condition Object
  NoSun,                                  !- Sun Exposure
  NoWind,                                 !- Wind Exposure
  ,                                       !- View Factor to Ground
  ,                                       !- Number of Vertices
  2.8421709430404e-014, -2.22044604925031e-015, 3.9624, !- X,Y,Z Vertex 1 {m}
  2.8421709430404e-014, -2.22044604925031e-015, 0, !- X,Y,Z Vertex 2 {m}
  4.57200000000003, -2.22044604925031e-015, 0, !- X,Y,Z Vertex 3 {m}
  4.57200000000003, -2.22044604925031e-015, 3.9624; !- X,Y,Z Vertex 4 {m}

OS:Surface,
  {baccecc0-546c-4992-ba6c-bf922a5162ac}, !- Handle
  Surface 12,                             !- Name
  RoofCeiling,                            !- Surface Type
  ,                                       !- Construction Name
  {cfd8a1bc-a03f-46e8-b78d-96b4edbf19da}, !- Space Name
  Surface,                                !- Outside Boundary Condition
  {340f83db-9145-4b41-acbd-1e4a51165324}, !- Outside Boundary Condition Object
  NoSun,                                  !- Sun Exposure
  NoWind,                                 !- Wind Exposure
  ,                                       !- View Factor to Ground
  ,                                       !- Number of Vertices
  4.57200000000003, -2.22044604925031e-015, 3.9624, !- X,Y,Z Vertex 1 {m}
  4.57200000000003, 6.72325420788238, 3.9624, !- X,Y,Z Vertex 2 {m}
  2.8421709430404e-014, 6.72325420788238, 3.9624, !- X,Y,Z Vertex 3 {m}
  2.8421709430404e-014, -2.22044604925031e-015, 3.9624; !- X,Y,Z Vertex 4 {m}

OS:ThermalZone,
  {3b742acc-76cd-43a3-a5bf-9600f8f01972}, !- Handle
  Zone PrimarySchool Office B end_a - Story Ground, !- Name
  1,                                      !- Multiplier
  ,                                       !- Ceiling Height {m}
  ,                                       !- Volume {m3}
  ,                                       !- Floor Area {m2}
  ,                                       !- Zone Inside Convection Algorithm
  ,                                       !- Zone Outside Convection Algorithm
  ,                                       !- Zone Conditioning Equipment List Name
  {475ffc9a-e0fb-427b-b5ca-0d9cee9ee0bf}, !- Zone Air Inlet Port List