
OS:Version,
  {e2e9bb51-316f-4e28-8ec1-a457372a62cf}, !- Handle
  2.7.2;                                  !- Version Identifier

OS:SpaceType,
  {8ccba53d-9c7d-4a23-a151-a9e9127d0a86}, !- Handle
  PrimarySchool Cafeteria,                !- Name
  ,                                       !- Default Construction Set Name
  ,                                       !- Default Schedule Set Name
  {995cff21-1cbb-464a-b6ef-86a0483f7f95}, !- Group Rendering Name
  ,                                       !- Design Specification Outdoor Air Object Name
  ,                                       !- Standards Template
  PrimarySchool,                          !- Standards Building Type
  Cafeteria;                              !- Standards Space Type

OS:Rendering:Color,
  {995cff21-1cbb-464a-b6ef-86a0483f7f95}, !- Handle
  PrimarySchool Cafeteria,                !- Name
  31,                                     !- Rendering Red Value
  169,                                    !- Rendering Green Value
  34;                                     !- Rendering Blue Value

OS:SpaceType,
  {2f64af27-e821-4a5f-a29d-d342023091b8}, !- Handle
  PrimarySchool Classroom,                !- Name
  ,                                       !- Default Construction Set Name
  ,                                       !- Default Schedule Set Name
  {61a2cac2-ea99-4a73-85fc-b7744e8b2cbe}, !- Group Rendering Name
  ,                                       !- Design Specification Outdoor Air Object Name
  ,                                       !- Standards Template
  PrimarySchool,                          !- Standards Building Type
  Classroom;                              !- Standards Space Type

OS:Rendering:Color,
  {61a2cac2-ea99-4a73-85fc-b7744e8b2cbe}, !- Handle
  PrimarySchool Classroom,                !- Name
  120,                                    !- Rendering Red Value
  230,                                    !- Rendering Green Value
  199;                                    !- Rendering Blue Value

OS:SpaceType,
  {433d6757-c46e-4a11-b02b-09a845f1d2d1}, !- Handle
  PrimarySchool Corridor,                 !- Name
  ,                                       !- Default Construction Set Name
  ,                                       !- Default Schedule Set Name
  {603948ea-9b7f-43d0-95f0-f4491e9a53b8}, !- Group Rendering Name
  ,                                       !- Design Specification Outdoor Air Object Name
  ,                                       !- Standards Template
  PrimarySchool,                          !- Standards Building Type
  Corridor;                               !- Standards Space Type

OS:Rendering:Color,
  {603948ea-9b7f-43d0-95f0-f4491e9a53b8}, !- Handle
  PrimarySchool Corridor,                 !- Name
  169,                                    !- Rendering Red Value
  31,                                     !- Rendering Green Value
  31;                                     !- Rendering Blue Value

OS:SpaceType,
  {ea58f7e9-25a1-4502-a988-f471b6c0d959}, !- Handle
  PrimarySchool Gym,                      !- Name
  ,                                       !- Default Construction Set Name
  ,                                       !- Default Schedule Set Name
  {1b94e37b-00b4-4871-9242-8335783e30b0}, !- Group Rendering Name
  ,                                       !- Design Specification Outdoor Air Object Name
  ,                                       !- Standards Template
  PrimarySchool,                          !- Standards Building Type
  Gym;                                    !- Standards Space Type

OS:Rendering:Color,
  {1b94e37b-00b4-4871-9242-8335783e30b0}, !- Handle
  PrimarySchool Gym,                      !- Name
  154,                                    !- Rendering Red Value
  230,                                    !- Rendering Green Value
  120;                                    !- Rendering Blue Value

OS:SpaceType,
  {6f0e21be-af8a-48e9-adef-dbaf7bd4421b}, !- Handle
  PrimarySchool Kitchen,                  !- Name
  ,                                       !- Default Construction Set Name
  ,                                       !- Default Schedule Set Name
  {69ebf1cb-9dbd-42a4-8901-e39deed9b27e}, !- Group Rendering Name
  ,                                       !- Design Specification Outdoor Air Object Name
  ,                                       !- Standards Template
  PrimarySchool,                          !- Standards Building Type
  Kitchen;                                !- Standards Space Type

OS:Rendering:Color,
  {69ebf1cb-9dbd-42a4-8901-e39deed9b27e}, !- Handle
  PrimarySchool Kitchen,                  !- Name
  78,                                     !- Rendering Red Value
  222,                                    !- Rendering Green Value
  133;                                    !- Rendering Blue Value

OS:SpaceType,
  {dd73c861-0e98-4c50-8e56-1f7c493e6ae2}, !- Handle
  PrimarySchool Library,                  !- Name
  ,                                       !- Default Construction Set Name
  ,                                       !- Default Schedule Set Name
  {cc197a7b-1f68-4c13-8345-e82d850aed18}, !- Group Rendering Name
  ,                                       !- Design Specification Outdoor Air Object Name
  ,                                       !- Standards Template
  PrimarySchool,                          !- Standards Building Type
  Library;                                !- Standards Space Type

OS:Rendering:Color,
  {cc197a7b-1f68-4c13-8345-e82d850aed18}, !- Handle
  PrimarySchool Library,                  !- Name
  230,                                    !- Rendering Red Value
  196,                                    !- Rendering Green Value
  120;                                    !- Rendering Blue Value

OS:SpaceType,
  {dd45dfd4-6067-45a0-ac08-3ea7c52f2a0b}, !- Handle
  PrimarySchool Lobby,                    !- Name
  ,                                       !- Default Construction Set Name
  ,                                       !- Default Schedule Set Name
  {888fefc6-c615-4b44-9d11-cc4ef837b6ac}, !- Group Rendering Name
  ,                                       !- Design Specification Outdoor Air Object Name
  ,                                       !- Standards Template
  PrimarySchool,                          !- Standards Building Type
  Lobby;                                  !- Standards Space Type

OS:Rendering:Color,
  {888fefc6-c615-4b44-9d11-cc4ef837b6ac}, !- Handle
  PrimarySchool Lobby,                    !- Name
  230,                                    !- Rendering Red Value
  157,                                    !- Rendering Green Value
  120;                                    !- Rendering Blue Value

OS:SpaceType,
  {937e5314-816a-4753-911c-973d2db0f8b7}, !- Handle
  PrimarySchool Mechanical,               !- Name
  ,                                       !- Default Construction Set Name
  ,                                       !- Default Schedule Set Name
  {d3f465bf-628c-4edc-97ad-c235d1349189}, !- Group Rendering Name
  ,                                       !- Design Specification Outdoor Air Object Name
  ,                                       !- Standards Template
  PrimarySchool,                          !- Standards Building Type
  Mechanical;                             !- Standards Space Type

OS:Rendering:Color,
  {d3f465bf-628c-4edc-97ad-c235d1349189}, !- Handle
  PrimarySchool Mechanical,               !- Name
  41,                                     !- Rendering Red Value
  31,                                     !- Rendering Green Value
  169;                                    !- Rendering Blue Value

OS:SpaceType,
  {12658a62-19ef-4f1c-9c11-75196d7cb3c2}, !- Handle
  PrimarySchool Office,                   !- Name
  ,                                       !- Default Construction Set Name
  ,                                       !- Default Schedule Set Name
  {c4e4ed80-a151-4610-8d2a-685d97102b72}, !- Group Rendering Name
  ,                                       !- Design Specification Outdoor Air Object Name
  ,                                       !- Standards Template
  PrimarySchool,                          !- Standards Building Type
  Office;                                 !- Standards Space Type

OS:Rendering:Color,
  {c4e4ed80-a151-4610-8d2a-685d97102b72}, !- Handle
  PrimarySchool Office,                   !- Name
  120,                                    !- Rendering Red Value
  230,                                    !- Rendering Green Value
  199;                                    !- Rendering Blue Value

OS:SpaceType,
  {807f9417-04fd-4498-a6d2-c400551c7801}, !- Handle
  PrimarySchool Restroom,                 !- Name
  ,                                       !- Default Construction Set Name
  ,                                       !- Default Schedule Set Name
  {c0bd2c27-57a0-403d-b7e2-fb2d3e9ce785}, !- Group Rendering Name
  ,                                       !- Design Specification Outdoor Air Object Name
  ,                                       !- Standards Template
  PrimarySchool,                          !- Standards Building Type
  Restroom;                               !- Standards Space Type

OS:Rendering:Color,
  {c0bd2c27-57a0-403d-b7e2-fb2d3e9ce785}, !- Handle
  PrimarySchool Restroom,                 !- Name
  169,                                    !- Rendering Red Value
  169,                                    !- Rendering Green Value
  31;                                     !- Rendering Blue Value

OS:Building,
  {74990549-977f-4d5e-b26d-843d00ae9881}, !- Handle
  90.1-2004|PrimarySchool,                !- Name
  ,                                       !- Building Sector Type
  -90,                                    !- North Axis {deg}
  ,                                       !- Nominal Floor to Floor Height {m}
  ,                                       !- Space Type Name
  ,                                       !- Default Construction Set Name
  ;                                       !- Default Schedule Set Name

OS:Site,
  {2885bc52-9f2d-4045-ae80-b0a13eb3ef0f}, !- Handle
  Site 1,                                 !- Name
  ,                                       !- Latitude {deg}
  ,                                       !- Longitude {deg}
  ,                                       !- Time Zone {hr}
  ,                                       !- Elevation {m}
  ;                                       !- Terrain

OS:BuildingStory,
  {6d75a149-8926-464e-90e6-5d63a47f704c}, !- Handle
  Story Ground,                           !- Name
  0,                                      !- Nominal Z Coordinate {m}
  3.9624,                                 !- Nominal Floor to Floor Height {m}
  ,                                       !- Default Construction Set Name
  ,                                       !- Default Schedule Set Name
  ;                                       !- Group Rendering Name

OS:Space,
  {6a549d43-0dba-44e1-b955-233d1ca2a97f}, !- Handle
  PrimarySchool Office A end_a - Story Ground, !- Name
  {12658a62-19ef-4f1c-9c11-75196d7cb3c2}, !- Space Type Name
  ,                                       !- Default Construction Set Name
  ,                                       !- Default Schedule Set Name
  -0,                                     !- Direction of Relative North {deg}
  -97.5836133784766,                      !- X Origin {m}
  -7.93362710394119,                      !- Y Origin {m}
  0,                                      !- Z Origin {m}
  {6d75a149-8926-464e-90e6-5d63a47f704c}, !- Building Story Name
  {6162e9f3-9123-4bfe-879a-bfd3873ba6d2}; !- Thermal Zone Name

OS:Surface,
  {f1a93a24-f558-486d-8158-6ef3b955cb79}, !- Handle
  Surface 1,                              !- Name
  Floor,                                  !- Surface Type
  ,                                       !- Construction Name
  {6a549d43-0dba-44e1-b955-233d1ca2a97f}, !- Space Name
  Ground,                                 !- Outside Boundary Condition
  ,                                       !- Outside Boundary Condition Object
  NoSun,                                  !- Sun Exposure
  NoWind,                                 !- Wind Exposure
  ,                                       !- View Factor to Ground
  ,                                       !- Number of Vertices
  2.8421709430404e-014, -2.66453525910038e-015, 0, !- X,Y,Z Vertex 1 {m}
  2.8421709430404e-014, 4.572, 0,         !- X,Y,Z Vertex 2 {m}
  4.57200000000003, 4.572, 0,             !- X,Y,Z Vertex 3 {m}
  4.57200000000003, -2.66453525910038e-015, 0; !- X,Y,Z Vertex 4 {m}

OS:Surface,
  {3580a9a3-85f1-465a-8445-976f68bfed98}, !- Handle
  Surface 2,                              !- Name
  Wall,                                   !- Surface Type
  ,                                       !- Construction Name
  {6a549d43-0dba-44e1-b955-233d1ca2a97f}, !- Space Name
  Outdoors,                               !- Outside Boundary Condition
  ,                                       !- Outside Boundary Condition Object
  SunExposed,                             !- Sun Exposure
  WindExposed,                            !- Wind Exposure
  ,                                       !- View Factor to Ground
  ,                                       !- Number of Vertices
  2.8421709430404e-014, 4.572, 3.9624,    !- X,Y,Z Vertex 1 {m}
  2.8421709430404e-014, 4.572, 0,         !- X,Y,Z Vertex 2 {m}
  2.8421709430404e-014, -2.66453525910038e-015, 0, !- X,Y,Z Vertex 3 {m}
  2.8421709430404e-014, -2.66453525910038e-015, 3.9624; !- X,Y,Z Vertex 4 {m}

OS:Surface,
  {6d0624df-5f6e-4633-ac91-1fe6d6a1ff20}, !- Handle
  Surface 3,                              !- Name
  Wall,                                   !- Surface Type
  ,                                       !- Construction Name
  {6a549d43-0dba-44e1-b955-233d1ca2a97f}, !- Space Name
  Surface,                                !- Outside Boundary Condition
  {8eab91a6-72d8-4439-815c-f19998e35ae2}, !- Outside Boundary Condition Object
  NoSun,                                  !- Sun Exposure
  NoWind,                                 !- Wind Exposure
  ,                                       !- View Factor to Ground
  ,                                       !- Number of Vertices
  4.57200000000003, 4.572, 3.9624,        !- X,Y,Z Vertex 1 {m}
  4.57200000000003, 4.572, 0,             !- X,Y,Z Vertex 2 {m}
  2.8421709430404e-014, 4.572, 0,         !- X,Y,Z Vertex 3 {m}
  2.8421709430404e-014, 4.572, 3.9624;    !- X,Y,Z Vertex 4 {m}

OS:Surface,
  {235ac070-51dc-47d8-a24d-6d7a1a0b7c1f}, !- Handle
  Surface 4,                              !- Name
  Wall,                                   !- Surface Type
  ,                                       !- Construction Name
  {6a549d43-0dba-44e1-b955-233d1ca2a97f}, !- Space Name
  Surface,                                !- Outside Boundary Condition
  {8eb582d7-e027-4d2a-9ff6-4ac0c0e558f6}, !- Outside Boundary Condition Object
  NoSun,                                  !- Sun Exposure
  NoWind,                                 !- Wind Exposure
  ,                                       !- View Factor to Ground
  ,                                       !- Number of Vertices
  4.57200000000003, -2.66453525910038e-015, 3.9624, !- X,Y,Z Vertex 1 {m}
  4.57200000000003, -2.66453525910038e-015, 0, !- X,Y,Z Vertex 2 {m}
  4.57200000000003, 4.572, 0,             !- X,Y,Z Vertex 3 {m}
  4.57200000000003, 4.572, 3.9624;        !- X,Y,Z Vertex 4 {m}

OS:Surface,
  {ba1f5625-bd22-4438-8c05-aff75d776412}, !- Handle
  Surface 5,                              !- Name
  Wall,                                   !- Surface Type
  ,                                       !- Construction Name
  {6a549d43-0dba-44e1-b955-233d1ca2a97f}, !- Space Name
  Adiabatic,                              !- Outside Boundary Condition
  ,                                       !- Outside Boundary Condition Object
  NoSun,                                  !- Sun Exposure
  NoWind,                                 !- Wind Exposure
  ,                                       !- View Factor to Ground
  ,                                       !- Number of Vertices
  2.8421709430404e-014, -2.66453525910038e-015, 3.9624, !- X,Y,Z Vertex 1 {m}
  2.8421709430404e-014, -2.66453525910038e-015, 0, !- X,Y,Z Vertex 2 {m}
  4.57200000000003, -2.66453525910038e-015, 0, !- X,Y,Z Vertex 3 {m}
  4.57200000000003, -2.66453525910038e-015, 3.9624; !- X,Y,Z Vertex 4 {m}

OS:Surface,
  {b8bc671f-1c67-40f7-b338-a590086aba63}, !- Handle
  Surface 6,                              !- Name
  RoofCeiling,                            !- Surface Type
  ,                                       !- Construction Name
  {6a549d43-0dba-44e1-b955-233d1ca2a97f}, !- Space Name
  Surface,                                !- Outside Boundary Condition
  {6036b6e8-b3fd-479b-b9fb-7f20049caaef}, !- Outside Boundary Condition Object
  NoSun,                                  !- Sun Exposure
  NoWind,                                 !- Wind Exposure
  ,                                       !- View Factor to Ground
  ,                                       !- Number of Vertices
  4.57200000000003, -2.66453525910038e-015, 3.9624, !- X,Y,Z Vertex 1 {m}
  4.57200000000003, 4.572, 3.9624,        !- X,Y,Z Vertex 2 {m}
  2.8421709430404e-014, 4.572, 3.9624,    !- X,Y,Z Vertex 3 {m}
  2.8421709430404e-014, -2.66453525910038e-015, 3.9624; !- X,Y,Z Vertex 4 {m}

OS:ThermalZone,
  {6162e9f3-9123-4bfe-879a-bfd3873ba6d2}, !- Handle
  Zone PrimarySchool Office A end_a - Story Ground, !- Name
  1,                                      !- Multiplier
  ,                                       !- Ceiling Height {m}
  ,                                       !- Volume {m3}
  ,                                       !- Floor Area {m2}
  ,                                       !- Zone Inside Convection Algorithm
  ,                                       !- Zone Outside Convection Algorithm
  ,                                       !- Zone Conditioning Equipment List Name
  {90044e5e-a9b1-4ea2-977b-0d74ee3c68df}, !- Zone Air Inlet Port List
  {764069a4-3e27-40d4-a0dd-14c2f798fe8c}, !- Zone Air Exhaust Port List
  {27b8eaaa-7475-4e7d-bc03-00827124e956}, !- Zone Air Node Name
  {0cd20e28-97d6-470c-863c-a8dac3e90a68}, !- Zone Return Air Port List
  ,                                       !- Primary Daylighting Control Name
  ,                                       !- Fraction of Zone Controlled by Primary Daylighting Control
  ,                                       !- Secondary Daylighting Control Name
  ,                                       !- Fraction of Zone Controlled by Secondary Daylighting Control
  ,                                       !- Illuminance Map Name
  ,                                       !- Group Rendering Name
  ,                                       !- Thermostat Name
  No;                                     !- Use Ideal Air Loads

OS:Node,
  {09e7ac82-a017-4e31-8696-75bcca1ef916}, !- Handle
  Node 1,                                 !- Name
  {27b8eaaa-7475-4e7d-bc03-00827124e956}, !- Inlet Port
  ;                                       !- Outlet Port

OS:Connection,
  {27b8eaaa-7475-4e7d-bc03-00827124e956}, !- Handle
  {78d7dcdb-1be5-4544-9980-178fff711386}, !- Name
  {6162e9f3-9123-4bfe-879a-bfd3873ba6d2}, !- Source Object
  11,                                     !- Outlet Port
  {09e7ac82-a017-4e31-8696-75bcca1ef916}, !- Target Object
  2;                                      !- Inlet Port

OS:PortList,
  {90044e5e-a9b1-4ea2-977b-0d74ee3c68df}, !- Handle
  {46087cd7-7c90-48ac-927a-9ddd3a072374}, !- Name
  {6162e9f3-9123-4bfe-879a-bfd3873ba6d2}; !- HVAC Component

OS:PortList,
  {764069a4-3e27-40d4-a0dd-14c2f798fe8c}, !- Handle
  {b4ccbde4-e0a1-48fd-b2a6-bcb10966db35}, !- Name
  {6162e9f3-9123-4bfe-879a-bfd3873ba6d2}; !- HVAC Component

OS:PortList,
  {0cd20e28-97d6-470c-863c-a8dac3e90a68}, !- Handle
  {11fae36f-fea2-4b77-9726-f8d9e230c022}, !- Name
  {6162e9f3-9123-4bfe-879a-bfd3873ba6d2}; !- HVAC Component

OS:Sizing:Zone,
  {15b921f3-8deb-4517-917a-17adeefe1865}, !- Handle
  {6162e9f3-9123-4bfe-879a-bfd3873ba6d2}, !- Zone or ZoneList Name
  SupplyAirTemperature,                   !- Zone Cooling Design Supply Air Temperature Input Method
  14,                                     !- Zone Cooling Design Supply Air Temperature {C}
  11.11,                                  !- Zone Cooling Design Supply Air Temperature Difference {deltaC}
  SupplyAirTemperature,                   !- Zone Heating Design Supply Air Temperature Input Method
  40,                                     !- Zone Heating Design Supply Air Temperature {C}
  11.11,                                  !- Zone Heating Design Supply Air Temperature Difference {deltaC}
  0.0085,                                 !- Zone Cooling Design Supply Air Humidity Ratio {kg-H2O/kg-air}
  0.008,                                  !- Zone Heating Design Supply Air Humidity Ratio {kg-H2O/kg-air}
  ,                                       !- Zone Heating Sizing Factor
  ,                                       !- Zone Cooling Sizing Factor
  DesignDay,                              !- Cooling Design Air Flow Method
  ,                                       !- Cooling Design Air Flow Rate {m3/s}
  ,                                       !- Cooling Minimum Air Flow per Zone Floor Area {m3/s-m2}
  ,                                       !- Cooling Minimum Air Flow {m3/s}
  ,                                       !- Cooling Minimum Air Flow Fraction
  DesignDay,                              !- Heating Design Air Flow Method
  ,                                       !- Heating Design Air Flow Rate {m3/s}
  ,                                       !- Heating Maximum Air Flow per Zone Floor Area {m3/s-m2}
  ,                                       !- Heating Maximum Air Flow {m3/s}
  ,                                       !- Heating Maximum Air Flow Fraction
  ,                                       !- Design Zone Air Distribution Effectiveness in Cooling Mode
  ,                                       !- Design Zone Air Distribution Effectiveness in Heating Mode
  No,                                     !- Account for Dedicated Outdoor Air System
  NeutralSupplyAir,                       !- Dedicated Outdoor Air System Control Strategy
  autosize,                               !- Dedicated Outdoor Air Low Setpoint Temperature for Design {C}
  autosize;                               !- Dedicated Outdoor Air High Setpoint Temperature for Design {C}

OS:ZoneHVAC:EquipmentList,
  {19ea3aff-5cea-4f1d-807d-2c8bbd3e4f29}, !- Handle
  Zone HVAC Equipment List 1,             !- Name
  {6162e9f3-9123-4bfe-879a-bfd3873ba6d2}; !- Thermal Zone

OS:Space,
  {12b3c37a-f7b6-481d-bd80-ea1048554e40}, !- Handle
  PrimarySchool Office B end_a - Story Ground, !- Name
  {12658a62-19ef-4f1c-9c11-75196d7cb3c2}, !- Space Type Name
  ,                                       !- Default Construction Set Name
  ,                                       !- Default Schedule Set Name
  -0,                                     !- Direction of Relative North {deg}
  -97.5836133784766,                      !- X Origin {m}
  -3.36162710394119,                      !- Y Origin {m}
  0,                                      !- Z Origin {m}
  {6d75a149-8926-464e-90e6-5d63a47f704c}, !- Building Story Name
  {ac041380-e992-4eac-b0f6-8a9ba90769fa}; !- Thermal Zone Name

OS:Surface,
  {5f534861-020e-41ca-998a-9c0d780a5cab}, !- Handle
  Surface 7,                              !- Name
  Floor,                                  !- Surface Type
  ,                                       !- Construction Name
  {12b3c37a-f7b6-481d-bd80-ea1048554e40}, !- Space Name
  Ground,                                 !- Outside Boundary Condition
  ,                                       !- Outside Boundary Condition Object
  NoSun,                                  !- Sun Exposure
  NoWind,                                 !- Wind Exposure
  ,                                       !- View Factor to Ground
  ,                                       !- Number of Vertices
  2.8421709430404e-014, -2.22044604925031e-015, 0, !- X,Y,Z Vertex 1 {m}
  2.8421709430404e-014, 6.72325420788238, 0, !- X,Y,Z Vertex 2 {m}
  4.57200000000003, 6.72325420788238, 0,  !- X,Y,Z Vertex 3 {m}
  4.57200000000003, -2.22044604925031e-015, 0; !- X,Y,Z Vertex 4 {m}

OS:Surface,
  {c3577710-9c6a-4695-bd5e-1e7119d78160}, !- Handle
  Surface 8,                              !- Name
  Wall,                                   !- Surface Type
  ,                                       !- Construction Name
  {12b3c37a-f7b6-481d-bd80-ea1048554e40}, !- Space Name
  Outdoors,                               !- Outside Boundary Condition
  ,                                       !- Outside Boundary Condition Object
  SunExposed,                             !- Sun Exposure
  WindExposed,                            !- Wind Exposure
  ,                                       !- View Factor to Ground
  ,                                       !- Number of Vertices
  2.8421709430404e-014, 6.72325420788238, 3.9624, !- X,Y,Z Vertex 1 {m}
  2.8421709430404e-014, 6.72325420788238, 0, !- X,Y,Z Vertex 2 {m}
  2.8421709430404e-014, -2.22044604925031e-015, 0, !- X,Y,Z Vertex 3 {m}
  2.8421709430404e-014, -2.22044604925031e-015, 3.9624; !- X,Y,Z Vertex 4 {m}

OS:Surface,
  {c615614b-d931-476b-a065-b890c32cdddd}, !- Handle
  Surface 9,                              !- Name
  Wall,                                   !- Surface Type
  ,                                       !- Construction Name
  {12b3c37a-f7b6-481d-bd80-ea1048554e40}, !- Space Name
  Surface,                                !- Outside Boundary Condition
  {7f2698ac-b5ef-4ade-a325-ae3271bff357}, !- Outside Boundary Condition Object
  NoSun,                                  !- Sun Exposure
  NoWind,                                 !- Wind Exposure
  ,                                       !- View Factor to Ground
  ,                                       !- Number of Vertices
  4.57200000000003, 6.72325420788238, 3.9624, !- X,Y,Z Vertex 1 {m}
  4.57200000000003, 6.72325420788238, 0,  !- X,Y,Z Vertex 2 {m}
  2.8421709430404e-014, 6.72325420788238, 0, !- X,Y,Z Vertex 3 {m}
  2.8421709430404e-014, 6.72325420788238, 3.9624; !- X,Y,Z Vertex 4 {m}

OS:Surface,
  {454c6b33-58cc-47ec-b052-deda846eec40}, !- Handle
  Surface 10,                             !- Name
  Wall,                                   !- Surface Type
  ,                                       !- Construction Name
  {12b3c37a-f7b6-481d-bd80-ea1048554e40}, !- Space Name
  Surface,                                !- Outside Boundary Condition
  {bc2ef291-e87a-4137-8055-e248f1d371ce}, !- Outside Boundary Condition Object
  NoSun,                                  !- Sun Exposure
  NoWind,                                 !- Wind Exposure
  ,                                       !- View Factor to Ground
  ,                                       !- Number of Vertices
  4.57200000000003, -2.22044604925031e-015, 3.9624, !- X,Y,Z Vertex 1 {m}
  4.57200000000003, -2.22044604925031e-015, 0, !- X,Y,Z Vertex 2 {m}
  4.57200000000003, 6.72325420788238, 0,  !- X,Y,Z Vertex 3 {m}
  4.57200000000003, 6.72325420788238, 3.9624; !- X,Y,Z Vertex 4 {m}

OS:Surface,
  {8eab91a6-72d8-4439-815c-f19998e35ae2}, !- Handle
  Surface 11,                             !- Name
  Wall,                                   !- Surface Type
  ,                                       !- Construction Name
  {12b3c37a-f7b6-481d-bd80-ea1048554e40}, !- Space Name
  Surface,                                !- Outside Boundary Condition
  {6d0624df-5f6e-4633-ac91-1fe6d6a1ff20}, !- Outside Boundary Condition Object
  NoSun,                                  !- Sun Exposure
  NoWind,                                 !- Wind Exposure
  ,                                       !- View Factor to Ground
  ,                                       !- Number of Vertices
  2.8421709430404e-014, -2.22044604925031e-015, 3.9624, !- X,Y,Z Vertex 1 {m}
  2.8421709430404e-014, -2.22044604925031e-015, 0, !- X,Y,Z Vertex 2 {m}
  4.57200000000003, -2.22044604925031e-015, 0, !- X,Y,Z Vertex 3 {m}
  4.57200000000003, -2.22044604925031e-015, 3.9624; !- X,Y,Z Vertex 4 {m}

OS:Surface,
  {b8e03b0b-1157-482a-a6d6-51c65c08906a}, !- Handle
  Surface 12,                             !- Name
  RoofCeiling,                            !- Surface Type
  ,                                       !- Construction Name
  {12b3c37a-f7b6-481d-bd80-ea1048554e40}, !- Space Name
  Surface,                                !- Outside Boundary Condition
  {e6e4f160-d86f-43b0-bf55-7148d87e7a55}, !- Outside Boundary Condition Object
  NoSun,                                  !- Sun Exposure
  NoWind,                                 !- Wind Exposure
  ,                                       !- View Factor to Ground
  ,                                       !- Number of Vertices
  4.57200000000003, -2.22044604925031e-015, 3.9624, !- X,Y,Z Vertex 1 {m}
  4.57200000000003, 6.72325420788238, 3.9624, !- X,Y,Z Vertex 2 {m}
  2.8421709430404e-014, 6.72325420788238, 3.9624, !- X,Y,Z Vertex 3 {m}
  2.8421709430404e-014, -2.22044604925031e-015, 3.9624; !- X,Y,Z Vertex 4 {m}

OS:ThermalZone,
  {ac041380-e992-4eac-b0f6-8a9ba90769fa}, !- Handle
  Zone PrimarySchool Office B end_a - Story Ground, !- Name
  1,                                      !- Multiplier
  ,                                       !- Ceiling Height {m}
  ,                                       !- Volume {m3}
  ,                                       !- Floor Area {m2}
  ,                                       !- Zone Inside Convection Algorithm
  ,                                       !- Zone Outside Convection Algorithm
  ,                                       !- Zone Conditioning Equipment List Name
  {92e610d7-7aa6-4cf6-b946-653c0ffc22cf}, !- Zone Air Inlet Port List