
OS:Version,
  {4fe01378-3c3f-4e16-b82d-5dcf28efbc1d}, !- Handle
  2.7.2;                                  !- Version Identifier

OS:SpaceType,
  {af701110-8fc7-43f5-9334-b2acc0c383e4}, !- Handle
  Office WholeBuilding - Md Office,       !- Name
  ,                                       !- Default Construction Set Name
  ,                                       !- Default Schedule Set Name
  {e1b8ffc0-77bc-4091-a8ef-620ac65ecd1f}, !- Group Rendering Name
  ,                                       !- Design Specification Outdoor Air Object Name
  ,                                       !- Standards Template
  Office,                                 !- Standards Building Type
  WholeBuilding - Md Office;              !- Standards Space Type

OS:Rendering:Color,
  {e1b8ffc0-77bc-4091-a8ef-620ac65ecd1f}, !- Handle
  Office WholeBuilding - Md Office,       !- Name
  120,                                    !- Rendering Red Value
  230,                                    !- Rendering Green Value
  199;                                    !- Rendering Blue Value

OS:Building,
  {f57f9ee4-7a5d-4c20-a952-c3eaa4ed586f}, !- Handle
  90.1-2004|MediumOffice,                 !- Name
  ,                                       !- Building Sector Type
  ,                                       !- North Axis {deg}
  ,                                       !- Nominal Floor to Floor Height {m}
  {af701110-8fc7-43f5-9334-b2acc0c383e4}, !- Space Type Name
  ,                                       !- Default Construction Set Name
  ;                                       !- Default Schedule Set Name

OS:Site,
  {ffb3f96b-67b1-4a90-9454-ab3b6b7930dc}, !- Handle
  Site 1,                                 !- Name
  ,                                       !- Latitude {deg}
  ,                                       !- Longitude {deg}
  ,                                       !- Time Zone {hr}
  ,                                       !- Elevation {m}
  ;                                       !- Terrain

OS:BuildingStory,
  {1b13a1ec-6d70-4836-a9a5-f9984716f03b}, !- Handle
  Story B1,                               !- Name
  -3.9624,                                !- Nominal Z Coordinate {m}
  3.9624,                                 !- Nominal Floor to Floor Height {m}
  ,                                       !- Default Construction Set Name
  ,                                       !- Default Schedule Set Name
  ;                                       !- Group Rendering Name

OS:Space,
  {2d66f9a9-74f1-4cae-a501-04ee0ed8b58d}, !- Handle
  West Perimeter Space - Story B1,        !- Name
  ,                                       !- Space Type Name
  ,                                       !- Default Construction Set Name
  ,                                       !- Default Schedule Set Name
  -0,                                     !- Direction of Relative North {deg}
  -14.1094983205337,                      !- X Origin {m}
  -9.40633221368912,                      !- Y Origin {m}
  -3.9624,                                !- Z Origin {m}
  {1b13a1ec-6d70-4836-a9a5-f9984716f03b}, !- Building Story Name
  {bc784323-28b6-4806-9c51-ae5d844c6ec3}; !- Thermal Zone Name

OS:Surface,
  {b9970916-90f0-4f74-957f-09fd6b2e8ff9}, !- Handle
  Surface 1,                              !- Name
  Floor,                                  !- Surface Type
  ,                                       !- Construction Name
  {2d66f9a9-74f1-4cae-a501-04ee0ed8b58d}, !- Space Name
  Ground,                                 !- Outside Boundary Condition
  ,                                       !- Outside Boundary Condition Object
  NoSun,                                  !- Sun Exposure
  NoWind,                                 !- Wind Exposure
  ,                                       !- View Factor to Ground
  ,                                       !- Number of Vertices
  -1.24344978758018e-014, 1.77635683940025e-015, 0, !- X,Y,Z Vertex 1 {m}
  -1.24344978758018e-014, 18.8126644273782, 0, !- X,Y,Z Vertex 2 {m}
  4.572, 14.2406644273782, 0,             !- X,Y,Z Vertex 3 {m}
  4.572, 4.572, 0;                        !- X,Y,Z Vertex 4 {m}

OS:Surface,
  {a76cc082-7471-4e51-b254-834d2bc93c8e}, !- Handle
  Surface 2,                              !- Name
  Wall,                                   !- Surface Type
  ,                                       !- Construction Name
  {2d66f9a9-74f1-4cae-a501-04ee0ed8b58d}, !- Space Name
  Ground,                                 !- Outside Boundary Condition
  ,                                       !- Outside Boundary Condition Object
  NoSun,                                  !- Sun Exposure
  NoWind,                                 !- Wind Exposure
  ,                                       !- View Factor to Ground
  ,                                       !- Number of Vertices
  -1.24344978758018e-014, 18.8126644273782, 3.9624, !- X,Y,Z Vertex 1 {m}
  -1.24344978758018e-014, 18.8126644273782, 0, !- X,Y,Z Vertex 2 {m}
  -1.24344978758018e-014, 1.77635683940025e-015, 0, !- X,Y,Z Vertex 3 {m}
  -1.24344978758018e-014, 1.77635683940025e-015, 3.9624; !- X,Y,Z Vertex 4 {m}

OS:Surface,
  {c514d2fd-a907-4789-8ae0-69ca34e2f9a0}, !- Handle
  Surface 3,                              !- Name
  Wall,                                   !- Surface Type
  ,                                       !- Construction Name
  {2d66f9a9-74f1-4cae-a501-04ee0ed8b58d}, !- Space Name
  Surface,                                !- Outside Boundary Condition
  {f8ed9250-52c5-4060-9834-c8ba8c10d79b}, !- Outside Boundary Condition Object
  NoSun,                                  !- Sun Exposure
  NoWind,                                 !- Wind Exposure
  ,                                       !- View Factor to Ground
  ,                                       !- Number of Vertices
  4.572, 14.2406644273782, 3.9624,        !- X,Y,Z Vertex 1 {m}
  4.572, 14.2406644273782, 0,             !- X,Y,Z Vertex 2 {m}
  -1.24344978758018e-014, 18.8126644273782, 0, !- X,Y,Z Vertex 3 {m}
  -1.24344978758018e-014, 18.8126644273782, 3.9624; !- X,Y,Z Vertex 4 {m}

OS:Surface,
  {536aa185-7987-4b2f-9648-94db25a8474c}, !- Handle
  Surface 4,                              !- Name
  Wall,                                   !- Surface Type
  ,                                       !- Construction Name
  {2d66f9a9-74f1-4cae-a501-04ee0ed8b58d}, !- Space Name
  Surface,                                !- Outside Boundary Condition
  {9e27996f-df16-438e-b748-bd6b6f5b29a8}, !- Outside Boundary Condition Object
  NoSun,                                  !- Sun Exposure
  NoWind,                                 !- Wind Exposure
  ,                                       !- View Factor to Ground
  ,                                       !- Number of Vertices
  4.572, 4.572, 3.9624,                   !- X,Y,Z Vertex 1 {m}
  4.572, 4.572, 0,                        !- X,Y,Z Vertex 2 {m}
  4.572, 14.2406644273782, 0,             !- X,Y,Z Vertex 3 {m}
  4.572, 14.2406644273782, 3.9624;        !- X,Y,Z Vertex 4 {m}

OS:Surface,
  {ac8f1205-8820-4d92-a4e5-2cecd70d7bd3}, !- Handle
  Surface 5,                              !- Name
  Wall,                                   !- Surface Type
  ,                                       !- Construction Name
  {2d66f9a9-74f1-4cae-a501-04ee0ed8b58d}, !- Space Name
  Surface,                                !- Outside Boundary Condition
  {86c74b9f-69c6-4c3e-8192-868b5c92e7ec}, !- Outside Boundary Condition Object
  NoSun,                                  !- Sun Exposure
  NoWind,                                 !- Wind Exposure
  ,                                       !- View Factor to Ground
  ,                                       !- Number of Vertices
  -1.24344978758018e-014, 1.77635683940025e-015, 3.9624, !- X,Y,Z Vertex 1 {m}
  -1.24344978758018e-014, 1.77635683940025e-015, 0, !- X,Y,Z Vertex 2 {m}
  4.572, 4.572, 0,                        !- X,Y,Z Vertex 3 {m}
  4.572, 4.572, 3.9624;                   !- X,Y,Z Vertex 4 {m}

OS:Surface,
  {7d3206eb-c491-446a-8ec9-c31f63f4f18d}, !- Handle
  Surface 6,                              !- Name
  RoofCeiling,                            !- Surface Type
  ,                                       !- Construction Name
  {2d66f9a9-74f1-4cae-a501-04ee0ed8b58d}, !- Space Name
  Surface,                                !- Outside Boundary Condition
  {f651bd04-93d6-47ee-b43d-ea4894852fea}, !- Outside Boundary Condition Object
  NoSun,                                  !- Sun Exposure
  NoWind,                                 !- Wind Exposure
  ,                                       !- View Factor to Ground
  ,                                       !- Number of Vertices
  4.572, 4.572, 3.9624,                   !- X,Y,Z Vertex 1 {m}
  4.572, 14.2406644273782, 3.9624,        !- X,Y,Z Vertex 2 {m}
  -1.24344978758018e-014, 18.8126644273782, 3.9624, !- X,Y,Z Vertex 3 {m}
  -1.24344978758018e-014, 1.77635683940025e-015, 3.9624; !- X,Y,Z Vertex 4 {m}

OS:ThermalZone,
  {bc784323-28b6-4806-9c51-ae5d844c6ec3}, !- Handle
  Zone West Perimeter Space - Story B1,   !- Name
  1,                                      !- Multiplier
  ,                                       !- Ceiling Height {m}
  ,                                       !- Volume {m3}
  ,                                       !- Floor Area {m2}
  ,                                       !- Zone Inside Convection Algorithm
  ,                                       !- Zone Outside Convection Algorithm
  ,                                       !- Zone Conditioning Equipment List Name
  {58973aa0-56d0-47ab-b820-00be33aad566}, !- Zone Air Inlet Port List
  {53c83a6c-2aaa-4233-9c4b-9c81d6af7803}, !- Zone Air Exhaust Port List
  {99c8d144-5747-4f5f-b30b-4ac9f3b92cdb}, !- Zone Air Node Name
  {930234a3-1d54-4dbb-80e6-e6495d053386}, !- Zone Return Air Port List
  ,                                       !- Primary Daylighting Control Name
  ,                                       !- Fraction of Zone Controlled by Primary Daylighting Control
  ,                                       !- Secondary Daylighting Control Name
  ,                                       !- Fraction of Zone Controlled by Secondary Daylighting Control
  ,                                       !- Illuminance Map Name
  ,                                       !- Group Rendering Name
  ,                                       !- Thermostat Name
  No;                                     !- Use Ideal Air Loads

OS:Node,
  {5cb90355-422d-454a-a4ce-1c0e49de18b7}, !- Handle
  Node 1,                                 !- Name
  {99c8d144-5747-4f5f-b30b-4ac9f3b92cdb}, !- Inlet Port
  ;                                       !- Outlet Port

OS:Connection,
  {99c8d144-5747-4f5f-b30b-4ac9f3b92cdb}, !- Handle
  {b5755a9e-9224-403f-b3d9-5a3c18d5f708}, !- Name
  {bc784323-28b6-4806-9c51-ae5d844c6ec3}, !- Source Object
  11,                                     !- Outlet Port
  {5cb90355-422d-454a-a4ce-1c0e49de18b7}, !- Target Object
  2;                                      !- Inlet Port

OS:PortList,
  {58973aa0-56d0-47ab-b820-00be33aad566}, !- Handle
  {38c9d1c6-f732-467c-9cfa-3d5c6a1bd0e4}, !- Name
  {bc784323-28b6-4806-9c51-ae5d844c6ec3}; !- HVAC Component

OS:PortList,
  {53c83a6c-2aaa-4233-9c4b-9c81d6af7803}, !- Handle
  {265bd40c-fcc8-4b5a-8d4e-bfe36e8259b1}, !- Name
  {bc784323-28b6-4806-9c51-ae5d844c6ec3}; !- HVAC Component

OS:PortList,
  {930234a3-1d54-4dbb-80e6-e6495d053386}, !- Handle
  {ba9677bd-9108-4f3b-9de8-eba96601e17c}, !- Name
  {bc784323-28b6-4806-9c51-ae5d844c6ec3}; !- HVAC Component

OS:Sizing:Zone,
  {c3c34510-cf4b-42ac-823e-fe17cf8aa77c}, !- Handle
  {bc784323-28b6-4806-9c51-ae5d844c6ec3}, !- Zone or ZoneList Name
  SupplyAirTemperature,                   !- Zone Cooling Design Supply Air Temperature Input Method
  14,                                     !- Zone Cooling Design Supply Air Temperature {C}
  11.11,                                  !- Zone Cooling Design Supply Air Temperature Difference {deltaC}
  SupplyAirTemperature,                   !- Zone Heating Design Supply Air Temperature Input Method
  40,                                     !- Zone Heating Design Supply Air Temperature {C}
  11.11,                                  !- Zone Heating Design Supply Air Temperature Difference {deltaC}
  0.0085,                                 !- Zone Cooling Design Supply Air Humidity Ratio {kg-H2O/kg-air}
  0.008,                                  !- Zone Heating Design Supply Air Humidity Ratio {kg-H2O/kg-air}
  ,                                       !- Zone Heating Sizing Factor
  ,                                       !- Zone Cooling Sizing Factor
  DesignDay,                              !- Cooling Design Air Flow Method
  ,                                       !- Cooling Design Air Flow Rate {m3/s}
  ,                                       !- Cooling Minimum Air Flow per Zone Floor Area {m3/s-m2}
  ,                                       !- Cooling Minimum Air Flow {m3/s}
  ,                                       !- Cooling Minimum Air Flow Fraction
  DesignDay,                              !- Heating Design Air Flow Method
  ,                                       !- Heating Design Air Flow Rate {m3/s}
  ,                                       !- Heating Maximum Air Flow per Zone Floor Area {m3/s-m2}
  ,                                       !- Heating Maximum Air Flow {m3/s}
  ,                                       !- Heating Maximum Air Flow Fraction
  ,                                       !- Design Zone Air Distribution Effectiveness in Cooling Mode
  ,                                       !- Design Zone Air Distribution Effectiveness in Heating Mode
  No,                                     !- Account for Dedicated Outdoor Air System
  NeutralSupplyAir,                       !- Dedicated Outdoor Air System Control Strategy
  autosize,                               !- Dedicated Outdoor Air Low Setpoint Temperature for Design {C}
  autosize;                               !- Dedicated Outdoor Air High Setpoint Temperature for Design {C}

OS:ZoneHVAC:EquipmentList,
  {b9de6753-6a1b-4258-b34c-b33ef5baa9e8}, !- Handle
  Zone HVAC Equipment List 1,             !- Name
  {bc784323-28b6-4806-9c51-ae5d844c6ec3}; !- Thermal Zone

OS:Space,
  {7d339154-f158-4dcf-88bb-004ac4a21595}, !- Handle
  North Perimeter Space - Story B1,       !- Name
  ,                                       !- Space Type Name
  ,                                       !- Default Construction Set Name
  ,                                       !- Default Schedule Set Name
  -0,                                     !- Direction of Relative North {deg}
  -14.1094983205337,                      !- X Origin {m}
  9.40633221368912,                       !- Y Origin {m}
  -3.9624,                                !- Z Origin {m}
  {1b13a1ec-6d70-4836-a9a5-f9984716f03b}, !- Building Story Name
  {4015b2b1-917b-4986-b4a6-918d68465ac7}; !- Thermal Zone Name

OS:Surface,
  {426c8a97-3faa-4605-bb16-3dfbed7bb66d}, !- Handle
  Surface 7,                              !- Name
  Floor,                                  !- Surface Type
  ,                                       !- Construction Name
  {7d339154-f158-4dcf-88bb-004ac4a21595}, !- Space Name
  Ground,                                 !- Outside Boundary Condition
  ,                                       !- Outside Boundary Condition Object
  NoSun,                                  !- Sun Exposure
  NoWind,                                 !- Wind Exposure
  ,                                       !- View Factor to Ground
  ,                                       !- Number of Vertices
  -1.24344978758018e-014, -1.77635683940025e-015, 0, !- X,Y,Z Vertex 1 {m}
  28.2189966410674, -1.77635683940025e-015, 0, !- X,Y,Z Vertex 2 {m}
  23.6469966410674, -4.572, 0,            !- X,Y,Z Vertex 3 {m}
  4.572, -4.572, 0;                       !- X,Y,Z Vertex 4 {m}

OS:Surface,
  {913103b2-2e2e-40c8-ad8d-0813975c22ed}, !- Handle
  Surface 8,                              !- Name
  Wall,                                   !- Surface Type
  ,                                       !- Construction Name
  {7d339154-f158-4dcf-88bb-004ac4a21595}, !- Space Name
  Ground,                                 !- Outside Boundary Condition
  ,                                       !- Outside Boundary Condition Object
  NoSun,                                  !- Sun Exposure
  NoWind,                                 !- Wind Exposure
  ,                                       !- View Factor to Ground
  ,                                       !- Number of Vertices
  28.2189966410674, -1.77635683940025e-015, 3.9624, !- X,Y,Z Vertex 1 {m}
  28.2189966410674, -1.77635683940025e-015, 0, !- X,Y,Z Vertex 2 {m}
  -1.24344978758018e-014, -1.77635683940025e-015, 0, !- X,Y,Z Vertex 3 {m}
  -1.24344978758018e-014, -1.77635683940025e-015, 3.9624; !- X,Y,Z Vertex 4 {m}

OS:Surface,
  {5d7c0878-afe9-4d60-9237-387e19ed5fed}, !- Handle
  Surface 9,                              !- Name
  Wall,                                   !- Surface Type
  ,                                       !- Construction Name
  {7d339154-f158-4dcf-88bb-004ac4a21595}, !- Space Name
  Surface,                                !- Outside Boundary Condition
  {e816d86f-e0fb-43a6-bfc0-677188db978f}, !- Outside Boundary Condition Object
  NoSun,                                  !- Sun Exposure
  NoWind,                                 !- Wind Exposure
  ,                                       !- View Factor to Ground
  ,                                       !- Number of Vertices
  23.6469966410674, -4.572, 3.9624,       !- X,Y,Z Vertex 1 {m}
  23.6469966410674, -4.572, 0,            !- X,Y,Z Vertex 2 {m}
  28.2189966410674, -1.77635683940025e-015, 0, !- X,Y,Z Vertex 3 {m}
  28.2189966410674, -1.77635683940025e-015, 3.9624; !- X,Y,Z Vertex 4 {m}

OS:Surface,
  {70dae324-81be-4e18-b7af-012f65b547dc}, !- Handle
  Surface 10,                             !- Name
  Wall,                                   !- Surface Type
  ,                                       !- Construction Name
  {7d339154-f158-4dcf-88bb-004ac4a21595}, !- Space Name
  Surface,                                !- Outside Boundary Condition
  {78749710-fa8a-4ea5-ae5f-66553c4d0bed}, !- Outside Boundary Condition Object
  NoSun,                                  !- Sun Exposure
  NoWind,                                 !- Wind Exposure
  ,                                       !- View Factor to Ground
  ,                                       !- Number of Vertices
  4.572, -4.572, 3.9624,                  !- X,Y,Z Vertex 1 {m}
  4.572, -4.572, 0,                       !- X,Y,Z Vertex 2 {m}
  23.6469966410674, -4.572, 0,            !- X,Y,Z Vertex 3 {m}
  23.6469966410674, -4.572, 3.9624;       !- X,Y,Z Vertex 4 {m}

OS:Surface,
  {f8ed9250-52c5-4060-9834-c8ba8c10d79b}, !- Handle
  Surface 11,                             !- Name
  Wall,                                   !- Surface Type
  ,                                       !- Construction Name
  {7d339154-f158-4dcf-88bb-004ac4a21595}, !- Space Name
  Surface,                                !- Outside Boundary Condition
  {c514d2fd-a907-4789-8ae0-69ca34e2f9a0}, !- Outside Boundary Condition Object
  NoSun,                                  !- Sun Exposure
  NoWind,                                 !- Wind Exposure
  ,                                       !- View Factor to Ground
  ,                                       !- Number of Vertices
  -1.24344978758018e-014, -1.77635683940025e-015, 3.9624, !- X,Y,Z Vertex 1 {m}
  -1.24344978758018e-014, -1.77635683940025e-015, 0, !- X,Y,Z Vertex 2 {m}
  4.572, -4.572, 0,                       !- X,Y,Z Vertex 3 {m}
  4.572, -4.572, 3.9624;                  !- X,Y,Z Vertex 4 {m}

OS:Surface,
  {5f10751c-5743-4c80-83a0-ac9bcb7f9898}, !- Handle
  Surface 12,                             !- Name
  RoofCeiling,                            !- Surface Type
  ,                                       !- Construction Name
  {7d339154-f158-4dcf-88bb-004ac4a21595}, !- Space Name
  Surface,                                !- Outside Boundary Condition
  {151e5abd-d3de-4927-97c3-5962f16d028d}, !- Outside Boundary Condition Object
  NoSun,                                  !- Sun Exposure
  NoWind,                                 !- Wind Exposure
  ,                                       !- View Factor to Ground
  ,                                       !- Number of Vertices
  4.572, -4.572, 3.9624,                  !- X,Y,Z Vertex 1 {m}
  23.6469966410674, -4.572, 3.9624,       !- X,Y,Z Vertex 2 {m}
  28.2189966410674, -1.77635683940025e-015, 3.9624, !- X,Y,Z Vertex 3 {m}
  -1.24344978758018e-014, -1.77635683940025e-015, 3.9624; !- X,Y,Z Vertex 4 {m}

OS:ThermalZone,
  {4015b2b1-917b-4986-b4a6-918d68465ac7}, !- Handle
  Zone North Perimeter Space - Story B1,  !- Name
  1,                                      !- Multiplier
  ,                                       !- Ceiling Height {m}
  ,                                       !- Volume {m3}
  ,                                       !- Floor Area {m2}
  ,                                       !- Zone Inside Convection Algorithm
  ,                                       !- Zone Outside Convection Algorithm
  ,                                       !- Zone Conditioning Equipment List Name
  {683bda7d-20f4-4df4-ae0b-6b10820b0d96}, !- Zone Air Inlet Port List
  {3e77e89e-c61c-4b08-9c0e-d0b966dd47df}, !- Zone Air Exhaust Port List
  {8cfe001f-527e-4bec-88ec-1a1363c0c45b}, !- Zone Air Node Name
  {50361526-9af1-4499-b571-1f1463138b87}, !- Zone Return Air Port List
  ,                                       !- Primary Daylighting Control Name
  ,                                       !- Fraction of Zone Controlled by Primary Daylighting Control
  ,                                       !- Secondary Daylighting Control Name
  ,                                       !- Fraction of Zone Controlled by Secondary Daylighting Control
  ,                                       !- Illuminance Map Name
  ,                                       !- Group Rendering Name
  ,                                       !- Thermostat Name
  No;                                     !- Use Ideal Air Loads

OS:Node,
  {02f142f7-380e-40c1-8e88-97d7cee3e21e}, !- Handle
  Node 2,                                 !- Name
  {8cfe001f-527e-4bec-88ec-1a1363c0c45b}, !- Inlet Port
  ;                                       !- Outlet Port

OS:Connection,
  {8cfe001f-527e-4bec-88ec-1a1363c0c45b}, !- Handle
  {65468b31-3585-4eb3-a25c-b2a855e77819}, !- Name
  {4015b2b1-917b-4986-b4a6-918d68465ac7}, !- Source Object
  11,                                     !- Outlet Port
  {02f142f7-380e-40c1-8e88-97d7cee3e21e}, !- Target Object
  2;                                      !- Inlet Port

OS:PortList,
  {683bda7d-20f4-4df4-ae0b-6b10820b0d96}, !- Handle
  {b0ce3675-1e97-464e-93ae-fc78e058a16c}, !- Name
  {4015b2b1-917b-4986-b4a6-918d68465ac7}; !- HVAC Component

OS:PortList,
  {3e77e89e-c61c-4b08-9c0e-d0b966dd47df}, !- Handle
  {fb6d39bb-966e-4067-b1ec-609758399e2b}, !- Name
  {4015b2b1-917b-4986-b4a6-918d68465ac7}; !- HVAC Component

OS:PortList,
  {50361526-9af1-4499-b571-1f1463138b87}, !- Handle
  {620eaee8-100b-4506-b25a-e7396c99fe62}, !- Name
  {4015b2b1-917b-4986-b4a6-918d68465ac7}; !- HVAC Component

OS:Sizing:Zone,
  {88b6adff-ec6f-4392-b6e3-73cdb1dab78c}, !- Handle
  {4015b2b1-917b-4986-b4a6-918d68465ac7}, !- Zone or ZoneList Name
  SupplyAirTemperature,                   !- Zone Cooling Design Supply Air Temperature Input Method
  14,                                     !- Zone Cooling Design Supply Air Temperature {C}
  11.11,                                  !- Zone Cooling Design Supply Air Temperature Difference {deltaC}
  SupplyAirTemperature,                   !- Zone Heating Design Supply Air Temperature Input Method
  40,                                     !- Zone Heating Design Supply Air Temperature {C}
  11.11,                                  !- Zone Heating Design Supply Air Temperature Difference {deltaC}
  0.0085,                                 !- Zone Cooling Design Supply Air Humidity Ratio {kg-H2O/kg-air}
  0.008,                                  !- Zone Heating Design Supply Air Humidity Ratio {kg-H2O/kg-air}
  ,                                       !- Zone Heating Sizing Factor
  ,                                       !- Zone Cooling Sizing Factor
  DesignDay,                              !- Cooling Design Air Flow Method
  ,                                       !- Cooling Design Air Flow Rate {m3/s}
  ,                                       !- Cooling Minimum Air Flow per Zone Floor Area {m3/s-m2}
  ,                                       !- Cooling Minimum Air Flow {m3/s}
  ,                                       !- Cooling Minimum Air Flow Fraction
  DesignDay,                              !- Heating Design Air Flow Method
  ,                                       !- Heating Design Air Flow Rate {m3/s}
  ,                                       !- Heating Maximum Air Flow per Zone Floor Area {m3/s-m2}
  ,                                       !- Heating Maximum Air Flow {m3/s}
  ,                                       !- Heating Maximum Air Flow Fraction
  ,                                       !- Design Zone Air Distribution Effectiveness in Cooling Mode
  ,                                       !- Design Zone Air Distribution Effectiveness in Heating Mode
  No,                                     !- Account for Dedicated Outdoor Air System
  NeutralSupplyAir,                       !- Dedicated Outdoor Air System Control Strategy
  autosize,                               !- Dedicated Outdoor Air Low Setpoint Temperature for Design {C}
  autosize;                               !- Dedicated Outdoor Air High Setpoint Temperature for Design {C}

OS:ZoneHVAC:EquipmentList,
  {df31b459-5855-4c3b-83e6-b5debd750555}, !- Handle
  Zone HVAC Equipment List 2,             !- Name
  {4015b2b1-917b-4986-b4a6-918d68465ac7}; !- Thermal Zone

OS:Space,
  {845a90d3-2756-4152-abed-4bb43571b3e1}, !- Handle
  East Perimeter Space - Story B1,        !- Name
  ,                                       !- Space Type Name
  ,                                       !- Default Construction Set Name
  ,                                       !- Default Schedule Set Name
  -0,                                     !- Direction of Relative North {deg}
  14.1094983205337,                       !- X Origin {m}
  9.40633221368912,                       !- Y Origin {m}
  -3.9624,                                !- Z Origin {m}
  {1b13a1ec-6d70-4836-a9a5-f9984716f03b}, !- Building Story Name
  {b7203063-f208-423b-8822-e947530d8947}; !- Thermal Zone Name

OS:Surface,
  {8b3f6cd2-131b-494b-875e-fcd540338827}, !- Handle
  Surface 13,                             !- Name
  Floor,                                  !- Surface Type
  ,                                       !- Construction Name
  {845a90d3-2756-4152-abed-4bb43571b3e1}, !- Space Name
  Ground,                                 !- Outside Boundary Condition
  ,                                       !- Outside Boundary Condition Object
  NoSun,                                  !- Sun Exposure
  NoWind,                                 !- Wind Exposure
  ,                                       !- View Factor to Ground
  ,                                       !- Number of Vertices
  1.24344978758018e-014, -1.77635683940025e-015, 0, !- X,Y,Z Vertex 1 {m}
  1.24344978758018e-014, -18.8126644273782, 0, !- X,Y,Z Vertex 2 {m}
  -4.572, -14.2406644273782, 0,           !- X,Y,Z Vertex 3 {m}
  -4.572, -4.572, 0;                      !- X,Y,Z Vertex 4 {m}

OS:Surface,
  {5f59d369-d4d4-47e7-8c14-23a2d2b4bc43}, !- Handle
  Surface 14,                             !- Name
  Wall,                                   !- Surface Type
  ,                                       !- Construction Name
  {845a90d3-2756-4152-abed-4bb43571b3e1}, !- Space Name
  Ground,                                 !- Outside Boundary Condition
  ,                                       !- Outside Boundary Condition Object
  NoSun,                                  !- Sun Exposure
  NoWind,                                 !- Wind Exposure
  ,                                       !- View Factor to Ground
  ,                                       !- Number of Vertices
  1.24344978758018e-014, -18.8126644273782, 3.9624, !- X,Y,Z Vertex 1 {m}
  1.24344978758018e-014, -18.8126644273782, 0, !- X,Y,Z Vertex 2 {m}
  1.24344978758018e-014, -1.77635683940025e-015, 0, !- X,Y,Z Vertex 3 {m}
  1.24344978758018e-014, -1.77635683940025e-015, 3.9624; !- X,Y,Z Vertex 4 {m}

OS:Surface,
  {a2f7bd96-223e-440f-839b-a7d5b3a8b4e3}, !- Handle
  Surface 15,                             !- Name
  Wall,                                   !- Surface Type
  ,                                       !- Construction Name
  {845a90d3-2756-4152-abed-4bb43571b3e1}, !- Space Name
  Surface,                                !- Outside Boundary Condition
  {cca4e337-cd1a-46cc-a3c5-3eb95e683663}, !- Outside Boundary Condition Object
  NoSun,                                  !- Sun Exposure
  NoWind,                                 !- Wind Exposure
  ,                                       !- View Factor to Ground
  ,                                       !- Number of Vertices
  -4.572, -14.2406644273782, 3.9624,      !- X,Y,Z Vertex 1 {m}
  -4.572, -14.2406644273782, 0,           !- X,Y,Z Vertex 2 {m}
  1.24344978758018e-014, -18.8126644273782, 0, !- X,Y,Z Vertex 3 {m}
  1.24344978758018e-014, -18.8126644273782, 3.9624; !- X,Y,Z Vertex 4 {m}

OS:Surface,
  {868280b9-b9ad-43b8-b3e1-db66a287696e}, !- Handle
  Surface 16,                             !- Name
  Wall,                                   !- Surface Type
  ,                                       !- Construction Name