
OS:Version,
  {9ae19064-1cf8-450d-97e3-ae2750cd9305}, !- Handle
  2.7.2;                                  !- Version Identifier

OS:SpaceType,
  {68254aee-e707-4f26-b5fd-6b0b146b37d2}, !- Handle
  Office WholeBuilding - Md Office,       !- Name
  ,                                       !- Default Construction Set Name
  ,                                       !- Default Schedule Set Name
  {d9c3b665-ffb5-4926-be62-ea016ec8d685}, !- Group Rendering Name
  ,                                       !- Design Specification Outdoor Air Object Name
  ,                                       !- Standards Template
  Office,                                 !- Standards Building Type
  WholeBuilding - Md Office;              !- Standards Space Type

OS:Rendering:Color,
  {d9c3b665-ffb5-4926-be62-ea016ec8d685}, !- Handle
  Office WholeBuilding - Md Office,       !- Name
  120,                                    !- Rendering Red Value
  230,                                    !- Rendering Green Value
  199;                                    !- Rendering Blue Value

OS:Building,
  {9eb11195-0bbb-4f44-b182-4eccc616252c}, !- Handle
  90.1-2004|MediumOffice,                 !- Name
  ,                                       !- Building Sector Type
  ,                                       !- North Axis {deg}
  ,                                       !- Nominal Floor to Floor Height {m}
  {68254aee-e707-4f26-b5fd-6b0b146b37d2}, !- Space Type Name
  ,                                       !- Default Construction Set Name
  ;                                       !- Default Schedule Set Name

OS:Site,
  {3730f389-95a0-495d-8b92-2ffd85df5162}, !- Handle
  Site 1,                                 !- Name
  ,                                       !- Latitude {deg}
  ,                                       !- Longitude {deg}
  ,                                       !- Time Zone {hr}
  ,                                       !- Elevation {m}
  ;                                       !- Terrain

OS:BuildingStory,
  {2c1c6229-d7a1-48ce-a4ef-cfa291449ea4}, !- Handle
  Story B1,                               !- Name
  -3.9624,                                !- Nominal Z Coordinate {m}
  3.9624,                                 !- Nominal Floor to Floor Height {m}
  ,                                       !- Default Construction Set Name
  ,                                       !- Default Schedule Set Name
  ;                                       !- Group Rendering Name

OS:Space,
  {64170689-7ede-40b9-a8aa-de719043b496}, !- Handle
  West Perimeter Space - Story B1,        !- Name
  ,                                       !- Space Type Name
  ,                                       !- Default Construction Set Name
  ,                                       !- Default Schedule Set Name
  -0,                                     !- Direction of Relative North {deg}
  -14.1094983205337,                      !- X Origin {m}
  -9.40633221368912,                      !- Y Origin {m}
  -3.9624,                                !- Z Origin {m}
  {2c1c6229-d7a1-48ce-a4ef-cfa291449ea4}, !- Building Story Name
  {ea76c07c-1e67-40d5-a990-c9382fdaf88c}; !- Thermal Zone Name

OS:Surface,
  {0417c0b2-98a9-4aba-9af0-a491c7ce902d}, !- Handle
  Surface 1,                              !- Name
  Floor,                                  !- Surface Type
  ,                                       !- Construction Name
  {64170689-7ede-40b9-a8aa-de719043b496}, !- Space Name
  Ground,                                 !- Outside Boundary Condition
  ,                                       !- Outside Boundary Condition Object
  NoSun,                                  !- Sun Exposure
  NoWind,                                 !- Wind Exposure
  ,                                       !- View Factor to Ground
  ,                                       !- Number of Vertices
  -1.24344978758018e-014, 1.77635683940025e-015, 0, !- X,Y,Z Vertex 1 {m}
  -1.24344978758018e-014, 18.8126644273782, 0, !- X,Y,Z Vertex 2 {m}
  4.572, 14.2406644273782, 0,             !- X,Y,Z Vertex 3 {m}
  4.572, 4.572, 0;                        !- X,Y,Z Vertex 4 {m}

OS:Surface,
  {db504492-3e6a-4da8-8fb9-07414184912d}, !- Handle
  Surface 2,                              !- Name
  Wall,                                   !- Surface Type
  ,                                       !- Construction Name
  {64170689-7ede-40b9-a8aa-de719043b496}, !- Space Name
  Ground,                                 !- Outside Boundary Condition
  ,                                       !- Outside Boundary Condition Object
  NoSun,                                  !- Sun Exposure
  NoWind,                                 !- Wind Exposure
  ,                                       !- View Factor to Ground
  ,                                       !- Number of Vertices
  -1.24344978758018e-014, 18.8126644273782, 3.9624, !- X,Y,Z Vertex 1 {m}
  -1.24344978758018e-014, 18.8126644273782, 0, !- X,Y,Z Vertex 2 {m}
  -1.24344978758018e-014, 1.77635683940025e-015, 0, !- X,Y,Z Vertex 3 {m}
  -1.24344978758018e-014, 1.77635683940025e-015, 3.9624; !- X,Y,Z Vertex 4 {m}

OS:Surface,
  {55a1d33e-1910-4611-8932-a65698458824}, !- Handle
  Surface 3,                              !- Name
  Wall,                                   !- Surface Type
  ,                                       !- Construction Name
  {64170689-7ede-40b9-a8aa-de719043b496}, !- Space Name
  Surface,                                !- Outside Boundary Condition
  {36c12b4e-8264-410e-8a8b-816a75d2492d}, !- Outside Boundary Condition Object
  NoSun,                                  !- Sun Exposure
  NoWind,                                 !- Wind Exposure
  ,                                       !- View Factor to Ground
  ,                                       !- Number of Vertices
  4.572, 14.2406644273782, 3.9624,        !- X,Y,Z Vertex 1 {m}
  4.572, 14.2406644273782, 0,             !- X,Y,Z Vertex 2 {m}
  -1.24344978758018e-014, 18.8126644273782, 0, !- X,Y,Z Vertex 3 {m}
  -1.24344978758018e-014, 18.8126644273782, 3.9624; !- X,Y,Z Vertex 4 {m}

OS:Surface,
  {3cd2624b-885a-4193-a226-ab191e84733d}, !- Handle
  Surface 4,                              !- Name
  Wall,                                   !- Surface Type
  ,                                       !- Construction Name
  {64170689-7ede-40b9-a8aa-de719043b496}, !- Space Name
  Surface,                                !- Outside Boundary Condition
  {c041d136-5489-4eb3-94f8-65b19496c1ce}, !- Outside Boundary Condition Object
  NoSun,                                  !- Sun Exposure
  NoWind,                                 !- Wind Exposure
  ,                                       !- View Factor to Ground
  ,                                       !- Number of Vertices
  4.572, 4.572, 3.9624,                   !- X,Y,Z Vertex 1 {m}
  4.572, 4.572, 0,                        !- X,Y,Z Vertex 2 {m}
  4.572, 14.2406644273782, 0,             !- X,Y,Z Vertex 3 {m}
  4.572, 14.2406644273782, 3.9624;        !- X,Y,Z Vertex 4 {m}

OS:Surface,
  {0cb5dff7-be03-4f68-9e3b-30f12da35f57}, !- Handle
  Surface 5,                              !- Name
  Wall,                                   !- Surface Type
  ,                                       !- Construction Name
  {64170689-7ede-40b9-a8aa-de719043b496}, !- Space Name
  Surface,                                !- Outside Boundary Condition
  {8c62e756-b8f0-42e3-a92c-66117f1da6ba}, !- Outside Boundary Condition Object
  NoSun,                                  !- Sun Exposure
  NoWind,                                 !- Wind Exposure
  ,                                       !- View Factor to Ground
  ,                                       !- Number of Vertices
  -1.24344978758018e-014, 1.77635683940025e-015, 3.9624, !- X,Y,Z Vertex 1 {m}
  -1.24344978758018e-014, 1.77635683940025e-015, 0, !- X,Y,Z Vertex 2 {m}
  4.572, 4.572, 0,                        !- X,Y,Z Vertex 3 {m}
  4.572, 4.572, 3.9624;                   !- X,Y,Z Vertex 4 {m}

OS:Surface,
  {1e3f0ac6-8b21-4d01-a704-b9ea5a46d043}, !- Handle
  Surface 6,                              !- Name
  RoofCeiling,                            !- Surface Type
  ,                                       !- Construction Name
  {64170689-7ede-40b9-a8aa-de719043b496}, !- Space Name
  Surface,                                !- Outside Boundary Condition
  {7df2fbbf-a219-43a2-ba5a-8ece9376e088}, !- Outside Boundary Condition Object
  NoSun,                                  !- Sun Exposure
  NoWind,                                 !- Wind Exposure
  ,                                       !- View Factor to Ground
  ,                                       !- Number of Vertices
  4.572, 4.572, 3.9624,                   !- X,Y,Z Vertex 1 {m}
  4.572, 14.2406644273782, 3.9624,        !- X,Y,Z Vertex 2 {m}
  -1.24344978758018e-014, 18.8126644273782, 3.9624, !- X,Y,Z Vertex 3 {m}
  -1.24344978758018e-014, 1.77635683940025e-015, 3.9624; !- X,Y,Z Vertex 4 {m}

OS:ThermalZone,
  {ea76c07c-1e67-40d5-a990-c9382fdaf88c}, !- Handle
  Zone West Perimeter Space - Story B1,   !- Name
  1,                                      !- Multiplier
  ,                                       !- Ceiling Height {m}
  ,                                       !- Volume {m3}
  ,                                       !- Floor Area {m2}
  ,                                       !- Zone Inside Convection Algorithm
  ,                                       !- Zone Outside Convection Algorithm
  ,                                       !- Zone Conditioning Equipment List Name
  {297bdce5-3b0a-4119-bab6-509af51f4ad2}, !- Zone Air Inlet Port List
  {ef7a5a49-9152-490b-a2ac-44ab063f3239}, !- Zone Air Exhaust Port List
  {5f82a159-1b1e-4917-9ed3-ef91e6656df8}, !- Zone Air Node Name
  {09fa6109-a797-4013-9f14-79a90a9b8f52}, !- Zone Return Air Port List
  ,                                       !- Primary Daylighting Control Name
  ,                                       !- Fraction of Zone Controlled by Primary Daylighting Control
  ,                                       !- Secondary Daylighting Control Name
  ,                                       !- Fraction of Zone Controlled by Secondary Daylighting Control
  ,                                       !- Illuminance Map Name
  ,                                       !- Group Rendering Name
  ,                                       !- Thermostat Name
  No;                                     !- Use Ideal Air Loads

OS:Node,
  {b95b5b11-439b-446e-8762-c0c5d2439c17}, !- Handle
  Node 1,                                 !- Name
  {5f82a159-1b1e-4917-9ed3-ef91e6656df8}, !- Inlet Port
  ;                                       !- Outlet Port

OS:Connection,
  {5f82a159-1b1e-4917-9ed3-ef91e6656df8}, !- Handle
  {d5ee6fcf-3d36-41e8-93aa-1cf2779161dc}, !- Name
  {ea76c07c-1e67-40d5-a990-c9382fdaf88c}, !- Source Object
  11,                                     !- Outlet Port
  {b95b5b11-439b-446e-8762-c0c5d2439c17}, !- Target Object
  2;                                      !- Inlet Port

OS:PortList,
  {297bdce5-3b0a-4119-bab6-509af51f4ad2}, !- Handle
  {a24a5c6c-1df9-47df-abe7-2d7ff752016a}, !- Name
  {ea76c07c-1e67-40d5-a990-c9382fdaf88c}; !- HVAC Component

OS:PortList,
  {ef7a5a49-9152-490b-a2ac-44ab063f3239}, !- Handle
  {fa51e593-2dbd-488a-8f50-0632ce0f11b9}, !- Name
  {ea76c07c-1e67-40d5-a990-c9382fdaf88c}; !- HVAC Component

OS:PortList,
  {09fa6109-a797-4013-9f14-79a90a9b8f52}, !- Handle
  {53f0f1bf-197f-4409-9b0e-13cec7eed956}, !- Name
  {ea76c07c-1e67-40d5-a990-c9382fdaf88c}; !- HVAC Component

OS:Sizing:Zone,
  {ddfba725-f64c-4667-94d0-b3a147ef3de8}, !- Handle
  {ea76c07c-1e67-40d5-a990-c9382fdaf88c}, !- Zone or ZoneList Name
  SupplyAirTemperature,                   !- Zone Cooling Design Supply Air Temperature Input Method
  14,                                     !- Zone Cooling Design Supply Air Temperature {C}
  11.11,                                  !- Zone Cooling Design Supply Air Temperature Difference {deltaC}
  SupplyAirTemperature,                   !- Zone Heating Design Supply Air Temperature Input Method
  40,                                     !- Zone Heating Design Supply Air Temperature {C}
  11.11,                                  !- Zone Heating Design Supply Air Temperature Difference {deltaC}
  0.0085,                                 !- Zone Cooling Design Supply Air Humidity Ratio {kg-H2O/kg-air}
  0.008,                                  !- Zone Heating Design Supply Air Humidity Ratio {kg-H2O/kg-air}
  ,                                       !- Zone Heating Sizing Factor
  ,                                       !- Zone Cooling Sizing Factor
  DesignDay,                              !- Cooling Design Air Flow Method
  ,                                       !- Cooling Design Air Flow Rate {m3/s}
  ,                                       !- Cooling Minimum Air Flow per Zone Floor Area {m3/s-m2}
  ,                                       !- Cooling Minimum Air Flow {m3/s}
  ,                                       !- Cooling Minimum Air Flow Fraction
  DesignDay,                              !- Heating Design Air Flow Method
  ,                                       !- Heating Design Air Flow Rate {m3/s}
  ,                                       !- Heating Maximum Air Flow per Zone Floor Area {m3/s-m2}
  ,                                       !- Heating Maximum Air Flow {m3/s}
  ,                                       !- Heating Maximum Air Flow Fraction
  ,                                       !- Design Zone Air Distribution Effectiveness in Cooling Mode
  ,                                       !- Design Zone Air Distribution Effectiveness in Heating Mode
  No,                                     !- Account for Dedicated Outdoor Air System
  NeutralSupplyAir,                       !- Dedicated Outdoor Air System Control Strategy
  autosize,                               !- Dedicated Outdoor Air Low Setpoint Temperature for Design {C}
  autosize;                               !- Dedicated Outdoor Air High Setpoint Temperature for Design {C}

OS:ZoneHVAC:EquipmentList,
  {2e08ff00-86a6-438d-bcdb-c8db13474535}, !- Handle
  Zone HVAC Equipment List 1,             !- Name
  {ea76c07c-1e67-40d5-a990-c9382fdaf88c}; !- Thermal Zone

OS:Space,
  {5e3ea679-c404-4b98-85cd-52204e00b5e7}, !- Handle
  North Perimeter Space - Story B1,       !- Name
  ,                                       !- Space Type Name
  ,                                       !- Default Construction Set Name
  ,                                       !- Default Schedule Set Name
  -0,                                     !- Direction of Relative North {deg}
  -14.1094983205337,                      !- X Origin {m}
  9.40633221368912,                       !- Y Origin {m}
  -3.9624,                                !- Z Origin {m}
  {2c1c6229-d7a1-48ce-a4ef-cfa291449ea4}, !- Building Story Name
  {76819dd9-57a3-4404-be64-a98651d85383}; !- Thermal Zone Name

OS:Surface,
  {9edb7e78-009e-4fc1-9bc5-e014fc98467a}, !- Handle
  Surface 7,                              !- Name
  Floor,                                  !- Surface Type
  ,                                       !- Construction Name
  {5e3ea679-c404-4b98-85cd-52204e00b5e7}, !- Space Name
  Ground,                                 !- Outside Boundary Condition
  ,                                       !- Outside Boundary Condition Object
  NoSun,                                  !- Sun Exposure
  NoWind,                                 !- Wind Exposure
  ,                                       !- View Factor to Ground
  ,                                       !- Number of Vertices
  -1.24344978758018e-014, -1.77635683940025e-015, 0, !- X,Y,Z Vertex 1 {m}
  28.2189966410674, -1.77635683940025e-015, 0, !- X,Y,Z Vertex 2 {m}
  23.6469966410674, -4.572, 0,            !- X,Y,Z Vertex 3 {m}
  4.572, -4.572, 0;                       !- X,Y,Z Vertex 4 {m}

OS:Surface,
  {5aff0d94-a330-4969-a962-a9bbb6ce6d5a}, !- Handle
  Surface 8,                              !- Name
  Wall,                                   !- Surface Type
  ,                                       !- Construction Name
  {5e3ea679-c404-4b98-85cd-52204e00b5e7}, !- Space Name
  Ground,                                 !- Outside Boundary Condition
  ,                                       !- Outside Boundary Condition Object
  NoSun,                                  !- Sun Exposure
  NoWind,                                 !- Wind Exposure
  ,                                       !- View Factor to Ground
  ,                                       !- Number of Vertices
  28.2189966410674, -1.77635683940025e-015, 3.9624, !- X,Y,Z Vertex 1 {m}
  28.2189966410674, -1.77635683940025e-015, 0, !- X,Y,Z Vertex 2 {m}
  -1.24344978758018e-014, -1.77635683940025e-015, 0, !- X,Y,Z Vertex 3 {m}
  -1.24344978758018e-014, -1.77635683940025e-015, 3.9624; !- X,Y,Z Vertex 4 {m}

OS:Surface,
  {f286fcc1-1f53-4f64-b660-643ce845fc9e}, !- Handle
  Surface 9,                              !- Name
  Wall,                                   !- Surface Type
  ,                                       !- Construction Name
  {5e3ea679-c404-4b98-85cd-52204e00b5e7}, !- Space Name
  Surface,                                !- Outside Boundary Condition
  {92489be3-d96d-415a-8d6a-423c5d6da9ca}, !- Outside Boundary Condition Object
  NoSun,                                  !- Sun Exposure
  NoWind,                                 !- Wind Exposure
  ,                                       !- View Factor to Ground
  ,                                       !- Number of Vertices
  23.6469966410674, -4.572, 3.9624,       !- X,Y,Z Vertex 1 {m}
  23.6469966410674, -4.572, 0,            !- X,Y,Z Vertex 2 {m}
  28.2189966410674, -1.77635683940025e-015, 0, !- X,Y,Z Vertex 3 {m}
  28.2189966410674, -1.77635683940025e-015, 3.9624; !- X,Y,Z Vertex 4 {m}

OS:Surface,
  {437c187b-2349-4577-b223-6d3b18aa8908}, !- Handle
  Surface 10,                             !- Name
  Wall,                                   !- Surface Type
  ,                                       !- Construction Name
  {5e3ea679-c404-4b98-85cd-52204e00b5e7}, !- Space Name
  Surface,                                !- Outside Boundary Condition
  {f3e8aac7-4521-4942-a555-7a48fbbec247}, !- Outside Boundary Condition Object
  NoSun,                                  !- Sun Exposure
  NoWind,                                 !- Wind Exposure
  ,                                       !- View Factor to Ground
  ,                                       !- Number of Vertices
  4.572, -4.572, 3.9624,                  !- X,Y,Z Vertex 1 {m}
  4.572, -4.572, 0,                       !- X,Y,Z Vertex 2 {m}
  23.6469966410674, -4.572, 0,            !- X,Y,Z Vertex 3 {m}
  23.6469966410674, -4.572, 3.9624;       !- X,Y,Z Vertex 4 {m}

OS:Surface,
  {36c12b4e-8264-410e-8a8b-816a75d2492d}, !- Handle
  Surface 11,                             !- Name
  Wall,                                   !- Surface Type
  ,                                       !- Construction Name
  {5e3ea679-c404-4b98-85cd-52204e00b5e7}, !- Space Name
  Surface,                                !- Outside Boundary Condition
  {55a1d33e-1910-4611-8932-a65698458824}, !- Outside Boundary Condition Object
  NoSun,                                  !- Sun Exposure
  NoWind,                                 !- Wind Exposure
  ,                                       !- View Factor to Ground
  ,                                       !- Number of Vertices
  -1.24344978758018e-014, -1.77635683940025e-015, 3.9624, !- X,Y,Z Vertex 1 {m}
  -1.24344978758018e-014, -1.77635683940025e-015, 0, !- X,Y,Z Vertex 2 {m}
  4.572, -4.572, 0,                       !- X,Y,Z Vertex 3 {m}
  4.572, -4.572, 3.9624;                  !- X,Y,Z Vertex 4 {m}

OS:Surface,
  {01aaac19-66b4-4200-874b-5013ad62b141}, !- Handle
  Surface 12,                             !- Name
  RoofCeiling,                            !- Surface Type
  ,                                       !- Construction Name
  {5e3ea679-c404-4b98-85cd-52204e00b5e7}, !- Space Name
  Surface,                                !- Outside Boundary Condition
  {2012da8a-8d22-4fe1-8f72-fdbc0158afb5}, !- Outside Boundary Condition Object
  NoSun,                                  !- Sun Exposure
  NoWind,                                 !- Wind Exposure
  ,                                       !- View Factor to Ground
  ,                                       !- Number of Vertices
  4.572, -4.572, 3.9624,                  !- X,Y,Z Vertex 1 {m}
  23.6469966410674, -4.572, 3.9624,       !- X,Y,Z Vertex 2 {m}
  28.2189966410674, -1.77635683940025e-015, 3.9624, !- X,Y,Z Vertex 3 {m}
  -1.24344978758018e-014, -1.77635683940025e-015, 3.9624; !- X,Y,Z Vertex 4 {m}

OS:ThermalZone,
  {76819dd9-57a3-4404-be64-a98651d85383}, !- Handle
  Zone North Perimeter Space - Story B1,  !- Name
  1,                                      !- Multiplier
  ,                                       !- Ceiling Height {m}
  ,                                       !- Volume {m3}
  ,                                       !- Floor Area {m2}
  ,                                       !- Zone Inside Convection Algorithm
  ,                                       !- Zone Outside Convection Algorithm
  ,                                       !- Zone Conditioning Equipment List Name
  {3b564871-158a-40cb-bc33-ff454f63fd22}, !- Zone Air Inlet Port List
  {ec907de5-6ddf-4a26-9a77-58e3eb5587bf}, !- Zone Air Exhaust Port List
  {4fe3966e-8c19-476e-a51c-f45d3e640345}, !- Zone Air Node Name
  {95d6d122-3ad8-4f02-82e8-b7bdf83f7cb9}, !- Zone Return Air Port List
  ,                                       !- Primary Daylighting Control Name
  ,                                       !- Fraction of Zone Controlled by Primary Daylighting Control
  ,                                       !- Secondary Daylighting Control Name
  ,                                       !- Fraction of Zone Controlled by Secondary Daylighting Control
  ,                                       !- Illuminance Map Name
  ,                                       !- Group Rendering Name
  ,                                       !- Thermostat Name
  No;                                     !- Use Ideal Air Loads

OS:Node,
  {cb5fea37-60b3-4fb8-a45d-75f54c412d81}, !- Handle
  Node 2,                                 !- Name
  {4fe3966e-8c19-476e-a51c-f45d3e640345}, !- Inlet Port
  ;                                       !- Outlet Port

OS:Connection,
  {4fe3966e-8c19-476e-a51c-f45d3e640345}, !- Handle
  {27b95fc6-7111-4e4d-87e8-df5d6b6148b8}, !- Name
  {76819dd9-57a3-4404-be64-a98651d85383}, !- Source Object
  11,                                     !- Outlet Port
  {cb5fea37-60b3-4fb8-a45d-75f54c412d81}, !- Target Object
  2;                                      !- Inlet Port

OS:PortList,
  {3b564871-158a-40cb-bc33-ff454f63fd22}, !- Handle
  {c9861713-e266-48cd-bb12-94e60774a075}, !- Name
  {76819dd9-57a3-4404-be64-a98651d85383}; !- HVAC Component

OS:PortList,
  {ec907de5-6ddf-4a26-9a77-58e3eb5587bf}, !- Handle
  {fbd9f2ed-0dd0-49c4-a905-ae31dd6c1b0a}, !- Name
  {76819dd9-57a3-4404-be64-a98651d85383}; !- HVAC Component

OS:PortList,
  {95d6d122-3ad8-4f02-82e8-b7bdf83f7cb9}, !- Handle
  {b905778c-1e62-4f01-9013-3bcacc08ea06}, !- Name
  {76819dd9-57a3-4404-be64-a98651d85383}; !- HVAC Component

OS:Sizing:Zone,
  {321278d3-5f70-415c-bc2e-d18a387241ca}, !- Handle
  {76819dd9-57a3-4404-be64-a98651d85383}, !- Zone or ZoneList Name
  SupplyAirTemperature,                   !- Zone Cooling Design Supply Air Temperature Input Method
  14,                                     !- Zone Cooling Design Supply Air Temperature {C}
  11.11,                                  !- Zone Cooling Design Supply Air Temperature Difference {deltaC}
  SupplyAirTemperature,                   !- Zone Heating Design Supply Air Temperature Input Method
  40,                                     !- Zone Heating Design Supply Air Temperature {C}
  11.11,                                  !- Zone Heating Design Supply Air Temperature Difference {deltaC}
  0.0085,                                 !- Zone Cooling Design Supply Air Humidity Ratio {kg-H2O/kg-air}
  0.008,                                  !- Zone Heating Design Supply Air Humidity Ratio {kg-H2O/kg-air}
  ,                                       !- Zone Heating Sizing Factor
  ,                                       !- Zone Cooling Sizing Factor
  DesignDay,                              !- Cooling Design Air Flow Method
  ,                                       !- Cooling Design Air Flow Rate {m3/s}
  ,                                       !- Cooling Minimum Air Flow per Zone Floor Area {m3/s-m2}
  ,                                       !- Cooling Minimum Air Flow {m3/s}
  ,                                       !- Cooling Minimum Air Flow Fraction
  DesignDay,                              !- Heating Design Air Flow Method
  ,                                       !- Heating Design Air Flow Rate {m3/s}
  ,                                       !- Heating Maximum Air Flow per Zone Floor Area {m3/s-m2}
  ,                                       !- Heating Maximum Air Flow {m3/s}
  ,                                       !- Heating Maximum Air Flow Fraction
  ,                                       !- Design Zone Air Distribution Effectiveness in Cooling Mode
  ,                                       !- Design Zone Air Distribution Effectiveness in Heating Mode
  No,                                     !- Account for Dedicated Outdoor Air System
  NeutralSupplyAir,                       !- Dedicated Outdoor Air System Control Strategy
  autosize,                               !- Dedicated Outdoor Air Low Setpoint Temperature for Design {C}
  autosize;                               !- Dedicated Outdoor Air High Setpoint Temperature for Design {C}

OS:ZoneHVAC:EquipmentList,
  {2787ab39-8b53-4677-b0d6-9da1a977feb3}, !- Handle
  Zone HVAC Equipment List 2,             !- Name
  {76819dd9-57a3-4404-be64-a98651d85383}; !- Thermal Zone

OS:Space,
  {81b896f1-7939-4969-a4b9-796766ef7b8e}, !- Handle
  East Perimeter Space - Story B1,        !- Name
  ,                                       !- Space Type Name
  ,                                       !- Default Construction Set Name
  ,                                       !- Default Schedule Set Name
  -0,                                     !- Direction of Relative North {deg}
  14.1094983205337,                       !- X Origin {m}
  9.40633221368912,                       !- Y Origin {m}
  -3.9624,                                !- Z Origin {m}
  {2c1c6229-d7a1-48ce-a4ef-cfa291449ea4}, !- Building Story Name
  {56855487-81a9-4927-8929-412fa93f2eff}; !- Thermal Zone Name

OS:Surface,
  {3da339b1-e740-4c45-94d1-6532765ccc68}, !- Handle
  Surface 13,                             !- Name
  Floor,                                  !- Surface Type
  ,                                       !- Construction Name
  {81b896f1-7939-4969-a4b9-796766ef7b8e}, !- Space Name
  Ground,                                 !- Outside Boundary Condition
  ,                                       !- Outside Boundary Condition Object
  NoSun,                                  !- Sun Exposure
  NoWind,                                 !- Wind Exposure
  ,                                       !- View Factor to Ground
  ,                                       !- Number of Vertices
  1.24344978758018e-014, -1.77635683940025e-015, 0, !- X,Y,Z Vertex 1 {m}
  1.24344978758018e-014, -18.8126644273782, 0, !- X,Y,Z Vertex 2 {m}
  -4.572, -14.2406644273782, 0,           !- X,Y,Z Vertex 3 {m}
  -4.572, -4.572, 0;                      !- X,Y,Z Vertex 4 {m}

OS:Surface,
  {a56208a3-3117-4e1f-add2-eb2d17c582fc}, !- Handle
  Surface 14,                             !- Name
  Wall,                                   !- Surface Type
  ,                                       !- Construction Name
  {81b896f1-7939-4969-a4b9-796766ef7b8e}, !- Space Name
  Ground,                                 !- Outside Boundary Condition
  ,                                       !- Outside Boundary Condition Object
  NoSun,                                  !- Sun Exposure
  NoWind,                                 !- Wind Exposure
  ,                                       !- View Factor to Ground
  ,                                       !- Number of Vertices
  1.24344978758018e-014, -18.8126644273782, 3.9624, !- X,Y,Z Vertex 1 {m}
  1.24344978758018e-014, -18.8126644273782, 0, !- X,Y,Z Vertex 2 {m}
  1.24344978758018e-014, -1.77635683940025e-015, 0, !- X,Y,Z Vertex 3 {m}
  1.24344978758018e-014, -1.77635683940025e-015, 3.9624; !- X,Y,Z Vertex 4 {m}

OS:Surface,
  {262c5d81-9206-416d-a225-4e9a94ebde9b}, !- Handle
  Surface 15,                             !- Name
  Wall,                                   !- Surface Type
  ,                                       !- Construction Name
  {81b896f1-7939-4969-a4b9-796766ef7b8e}, !- Space Name
  Surface,                                !- Outside Boundary Condition
  {c34d330b-0351-42a8-b563-a9d8184f0d99}, !- Outside Boundary Condition Object
  NoSun,                                  !- Sun Exposure
  NoWind,                                 !- Wind Exposure
  ,                                       !- View Factor to Ground
  ,                                       !- Number of Vertices
  -4.572, -14.2406644273782, 3.9624,      !- X,Y,Z Vertex 1 {m}
  -4.572, -14.2406644273782, 0,           !- X,Y,Z Vertex 2 {m}
  1.24344978758018e-014, -18.8126644273782, 0, !- X,Y,Z Vertex 3 {m}
  1.24344978758018e-014, -18.8126644273782, 3.9624; !- X,Y,Z Vertex 4 {m}

OS:Surface,
  {ee202ce1-d09d-4c3f-a94b-e40f63da1ed5}, !- Handle
  Surface 16,                             !- Name
  Wall,                                   !- Surface Type
  ,                                       !- Construction Name