
OS:Version,
  {bd0b405f-5e18-474a-8dda-15eb65703f1b}, !- Handle
  2.7.2;                                  !- Version Identifier

OS:SpaceType,
  {9c3e3a28-9a23-45e0-b53f-ba91bf36fcf1}, !- Handle
  Office WholeBuilding - Md Office,       !- Name
  ,                                       !- Default Construction Set Name
  ,                                       !- Default Schedule Set Name
  {36d437a8-36b9-4591-b41b-5262607b93cd}, !- Group Rendering Name
  ,                                       !- Design Specification Outdoor Air Object Name
  ,                                       !- Standards Template
  Office,                                 !- Standards Building Type
  WholeBuilding - Md Office;              !- Standards Space Type

OS:Rendering:Color,
  {36d437a8-36b9-4591-b41b-5262607b93cd}, !- Handle
  Office WholeBuilding - Md Office,       !- Name
  120,                                    !- Rendering Red Value
  230,                                    !- Rendering Green Value
  199;                                    !- Rendering Blue Value

OS:Building,
  {94a7b4fd-bbc8-47e0-aa02-593f6cf29943}, !- Handle
  90.1-2004|MediumOffice,                 !- Name
  ,                                       !- Building Sector Type
  ,                                       !- North Axis {deg}
  ,                                       !- Nominal Floor to Floor Height {m}
  {9c3e3a28-9a23-45e0-b53f-ba91bf36fcf1}, !- Space Type Name
  ,                                       !- Default Construction Set Name
  ;                                       !- Default Schedule Set Name

OS:Site,
  {a856a511-0a48-420d-9513-a34eb6f28185}, !- Handle
  Site 1,                                 !- Name
  ,                                       !- Latitude {deg}
  ,                                       !- Longitude {deg}
  ,                                       !- Time Zone {hr}
  ,                                       !- Elevation {m}
  ;                                       !- Terrain

OS:BuildingStory,
  {9e9247c0-200f-4196-b04f-64960c3ba7db}, !- Handle
  Story B1,                               !- Name
  -3.9624,                                !- Nominal Z Coordinate {m}
  3.9624,                                 !- Nominal Floor to Floor Height {m}
  ,                                       !- Default Construction Set Name
  ,                                       !- Default Schedule Set Name
  ;                                       !- Group Rendering Name

OS:Space,
  {78313f47-9cee-4609-acc6-8fbff7fdbefb}, !- Handle
  West Perimeter Space - Story B1,        !- Name
  ,                                       !- Space Type Name
  ,                                       !- Default Construction Set Name
  ,                                       !- Default Schedule Set Name
  -0,                                     !- Direction of Relative North {deg}
  -14.1094983205337,                      !- X Origin {m}
  -9.40633221368912,                      !- Y Origin {m}
  -3.9624,                                !- Z Origin {m}
  {9e9247c0-200f-4196-b04f-64960c3ba7db}, !- Building Story Name
  {3bc41562-59f9-41a2-bf36-99301651cdee}; !- Thermal Zone Name

OS:Surface,
  {91e27240-ee4f-48e8-98c7-ecdd904084cd}, !- Handle
  Surface 1,                              !- Name
  Floor,                                  !- Surface Type
  ,                                       !- Construction Name
  {78313f47-9cee-4609-acc6-8fbff7fdbefb}, !- Space Name
  Ground,                                 !- Outside Boundary Condition
  ,                                       !- Outside Boundary Condition Object
  NoSun,                                  !- Sun Exposure
  NoWind,                                 !- Wind Exposure
  ,                                       !- View Factor to Ground
  ,                                       !- Number of Vertices
  -1.24344978758018e-014, 1.77635683940025e-015, 0, !- X,Y,Z Vertex 1 {m}
  -1.24344978758018e-014, 18.8126644273782, 0, !- X,Y,Z Vertex 2 {m}
  4.572, 14.2406644273782, 0,             !- X,Y,Z Vertex 3 {m}
  4.572, 4.572, 0;                        !- X,Y,Z Vertex 4 {m}

OS:Surface,
  {e0c9ece3-d281-42b4-90aa-faf09d4bdcf7}, !- Handle
  Surface 2,                              !- Name
  Wall,                                   !- Surface Type
  ,                                       !- Construction Name
  {78313f47-9cee-4609-acc6-8fbff7fdbefb}, !- Space Name
  Ground,                                 !- Outside Boundary Condition
  ,                                       !- Outside Boundary Condition Object
  NoSun,                                  !- Sun Exposure
  NoWind,                                 !- Wind Exposure
  ,                                       !- View Factor to Ground
  ,                                       !- Number of Vertices
  -1.24344978758018e-014, 18.8126644273782, 3.9624, !- X,Y,Z Vertex 1 {m}
  -1.24344978758018e-014, 18.8126644273782, 0, !- X,Y,Z Vertex 2 {m}
  -1.24344978758018e-014, 1.77635683940025e-015, 0, !- X,Y,Z Vertex 3 {m}
  -1.24344978758018e-014, 1.77635683940025e-015, 3.9624; !- X,Y,Z Vertex 4 {m}

OS:Surface,
  {70f44c8b-5b93-42ca-955f-f87c4bdd4085}, !- Handle
  Surface 3,                              !- Name
  Wall,                                   !- Surface Type
  ,                                       !- Construction Name
  {78313f47-9cee-4609-acc6-8fbff7fdbefb}, !- Space Name
  Surface,                                !- Outside Boundary Condition
  {e315c629-7b84-4f81-8025-25d8da0318e2}, !- Outside Boundary Condition Object
  NoSun,                                  !- Sun Exposure
  NoWind,                                 !- Wind Exposure
  ,                                       !- View Factor to Ground
  ,                                       !- Number of Vertices
  4.572, 14.2406644273782, 3.9624,        !- X,Y,Z Vertex 1 {m}
  4.572, 14.2406644273782, 0,             !- X,Y,Z Vertex 2 {m}
  -1.24344978758018e-014, 18.8126644273782, 0, !- X,Y,Z Vertex 3 {m}
  -1.24344978758018e-014, 18.8126644273782, 3.9624; !- X,Y,Z Vertex 4 {m}

OS:Surface,
  {1a36e2aa-9edb-4e44-886e-0f05f91a3a11}, !- Handle
  Surface 4,                              !- Name
  Wall,                                   !- Surface Type
  ,                                       !- Construction Name
  {78313f47-9cee-4609-acc6-8fbff7fdbefb}, !- Space Name
  Surface,                                !- Outside Boundary Condition
  {56543513-284d-4761-aea1-0270eb4f5e6a}, !- Outside Boundary Condition Object
  NoSun,                                  !- Sun Exposure
  NoWind,                                 !- Wind Exposure
  ,                                       !- View Factor to Ground
  ,                                       !- Number of Vertices
  4.572, 4.572, 3.9624,                   !- X,Y,Z Vertex 1 {m}
  4.572, 4.572, 0,                        !- X,Y,Z Vertex 2 {m}
  4.572, 14.2406644273782, 0,             !- X,Y,Z Vertex 3 {m}
  4.572, 14.2406644273782, 3.9624;        !- X,Y,Z Vertex 4 {m}

OS:Surface,
  {a2eac7c5-f7a1-4653-9076-11a78eb9b3b6}, !- Handle
  Surface 5,                              !- Name
  Wall,                                   !- Surface Type
  ,                                       !- Construction Name
  {78313f47-9cee-4609-acc6-8fbff7fdbefb}, !- Space Name
  Surface,                                !- Outside Boundary Condition
  {45f45558-a09d-4262-9398-807fc62092ae}, !- Outside Boundary Condition Object
  NoSun,                                  !- Sun Exposure
  NoWind,                                 !- Wind Exposure
  ,                                       !- View Factor to Ground
  ,                                       !- Number of Vertices
  -1.24344978758018e-014, 1.77635683940025e-015, 3.9624, !- X,Y,Z Vertex 1 {m}
  -1.24344978758018e-014, 1.77635683940025e-015, 0, !- X,Y,Z Vertex 2 {m}
  4.572, 4.572, 0,                        !- X,Y,Z Vertex 3 {m}
  4.572, 4.572, 3.9624;                   !- X,Y,Z Vertex 4 {m}

OS:Surface,
  {ad425c71-88af-4ece-b651-1f2a1ac54830}, !- Handle
  Surface 6,                              !- Name
  RoofCeiling,                            !- Surface Type
  ,                                       !- Construction Name
  {78313f47-9cee-4609-acc6-8fbff7fdbefb}, !- Space Name
  Surface,                                !- Outside Boundary Condition
  {536db5e3-2049-4615-85c3-775767463a15}, !- Outside Boundary Condition Object
  NoSun,                                  !- Sun Exposure
  NoWind,                                 !- Wind Exposure
  ,                                       !- View Factor to Ground
  ,                                       !- Number of Vertices
  4.572, 4.572, 3.9624,                   !- X,Y,Z Vertex 1 {m}
  4.572, 14.2406644273782, 3.9624,        !- X,Y,Z Vertex 2 {m}
  -1.24344978758018e-014, 18.8126644273782, 3.9624, !- X,Y,Z Vertex 3 {m}
  -1.24344978758018e-014, 1.77635683940025e-015, 3.9624; !- X,Y,Z Vertex 4 {m}

OS:ThermalZone,
  {3bc41562-59f9-41a2-bf36-99301651cdee}, !- Handle
  Zone West Perimeter Space - Story B1,   !- Name
  1,                                      !- Multiplier
  ,                                       !- Ceiling Height {m}
  ,                                       !- Volume {m3}
  ,                                       !- Floor Area {m2}
  ,                                       !- Zone Inside Convection Algorithm
  ,                                       !- Zone Outside Convection Algorithm
  ,                                       !- Zone Conditioning Equipment List Name
  {746858cd-45b8-4e0a-a6d8-983ff7b173c8}, !- Zone Air Inlet Port List
  {9cbfe429-99bd-470f-b532-31d93ea37977}, !- Zone Air Exhaust Port List
  {2dee433f-546b-4e12-baa9-41f2e6bca4a0}, !- Zone Air Node Name
  {3bf4cb5b-dd44-4ef4-b4cd-14f652a7cb4b}, !- Zone Return Air Port List
  ,                                       !- Primary Daylighting Control Name
  ,                                       !- Fraction of Zone Controlled by Primary Daylighting Control
  ,                                       !- Secondary Daylighting Control Name
  ,                                       !- Fraction of Zone Controlled by Secondary Daylighting Control
  ,                                       !- Illuminance Map Name
  ,                                       !- Group Rendering Name
  ,                                       !- Thermostat Name
  No;                                     !- Use Ideal Air Loads

OS:Node,
  {fad210b3-5daf-409e-b0d2-fade6fff39f9}, !- Handle
  Node 1,                                 !- Name
  {2dee433f-546b-4e12-baa9-41f2e6bca4a0}, !- Inlet Port
  ;                                       !- Outlet Port

OS:Connection,
  {2dee433f-546b-4e12-baa9-41f2e6bca4a0}, !- Handle
  {1be126bd-fd80-4d06-bf4b-4f8502843fdd}, !- Name
  {3bc41562-59f9-41a2-bf36-99301651cdee}, !- Source Object
  11,                                     !- Outlet Port
  {fad210b3-5daf-409e-b0d2-fade6fff39f9}, !- Target Object
  2;                                      !- Inlet Port

OS:PortList,
  {746858cd-45b8-4e0a-a6d8-983ff7b173c8}, !- Handle
  {ca9beb27-3279-4dc3-9e1b-5fb804b0449f}, !- Name
  {3bc41562-59f9-41a2-bf36-99301651cdee}; !- HVAC Component

OS:PortList,
  {9cbfe429-99bd-470f-b532-31d93ea37977}, !- Handle
  {2e8fecab-07c8-4031-9c3e-2673d20de88e}, !- Name
  {3bc41562-59f9-41a2-bf36-99301651cdee}; !- HVAC Component

OS:PortList,
  {3bf4cb5b-dd44-4ef4-b4cd-14f652a7cb4b}, !- Handle
  {f9d523b3-7448-4a32-b0e6-780ed7cbe696}, !- Name
  {3bc41562-59f9-41a2-bf36-99301651cdee}; !- HVAC Component

OS:Sizing:Zone,
  {051ccaf9-6ca8-4a21-9c57-e237c9a2deca}, !- Handle
  {3bc41562-59f9-41a2-bf36-99301651cdee}, !- Zone or ZoneList Name
  SupplyAirTemperature,                   !- Zone Cooling Design Supply Air Temperature Input Method
  14,                                     !- Zone Cooling Design Supply Air Temperature {C}
  11.11,                                  !- Zone Cooling Design Supply Air Temperature Difference {deltaC}
  SupplyAirTemperature,                   !- Zone Heating Design Supply Air Temperature Input Method
  40,                                     !- Zone Heating Design Supply Air Temperature {C}
  11.11,                                  !- Zone Heating Design Supply Air Temperature Difference {deltaC}
  0.0085,                                 !- Zone Cooling Design Supply Air Humidity Ratio {kg-H2O/kg-air}
  0.008,                                  !- Zone Heating Design Supply Air Humidity Ratio {kg-H2O/kg-air}
  ,                                       !- Zone Heating Sizing Factor
  ,                                       !- Zone Cooling Sizing Factor
  DesignDay,                              !- Cooling Design Air Flow Method
  ,                                       !- Cooling Design Air Flow Rate {m3/s}
  ,                                       !- Cooling Minimum Air Flow per Zone Floor Area {m3/s-m2}
  ,                                       !- Cooling Minimum Air Flow {m3/s}
  ,                                       !- Cooling Minimum Air Flow Fraction
  DesignDay,                              !- Heating Design Air Flow Method
  ,                                       !- Heating Design Air Flow Rate {m3/s}
  ,                                       !- Heating Maximum Air Flow per Zone Floor Area {m3/s-m2}
  ,                                       !- Heating Maximum Air Flow {m3/s}
  ,                                       !- Heating Maximum Air Flow Fraction
  ,                                       !- Design Zone Air Distribution Effectiveness in Cooling Mode
  ,                                       !- Design Zone Air Distribution Effectiveness in Heating Mode
  No,                                     !- Account for Dedicated Outdoor Air System
  NeutralSupplyAir,                       !- Dedicated Outdoor Air System Control Strategy
  autosize,                               !- Dedicated Outdoor Air Low Setpoint Temperature for Design {C}
  autosize;                               !- Dedicated Outdoor Air High Setpoint Temperature for Design {C}

OS:ZoneHVAC:EquipmentList,
  {851b511b-1c64-4862-8293-b847392c2ece}, !- Handle
  Zone HVAC Equipment List 1,             !- Name
  {3bc41562-59f9-41a2-bf36-99301651cdee}; !- Thermal Zone

OS:Space,
  {028030af-19b6-4b79-85ae-5cc523e74262}, !- Handle
  North Perimeter Space - Story B1,       !- Name
  ,                                       !- Space Type Name
  ,                                       !- Default Construction Set Name
  ,                                       !- Default Schedule Set Name
  -0,                                     !- Direction of Relative North {deg}
  -14.1094983205337,                      !- X Origin {m}
  9.40633221368912,                       !- Y Origin {m}
  -3.9624,                                !- Z Origin {m}
  {9e9247c0-200f-4196-b04f-64960c3ba7db}, !- Building Story Name
  {70eaea61-5662-4bd2-9cb6-329c98f6be61}; !- Thermal Zone Name

OS:Surface,
  {09aabcc8-3fc7-497a-b7ec-9450d686dd6a}, !- Handle
  Surface 7,                              !- Name
  Floor,                                  !- Surface Type
  ,                                       !- Construction Name
  {028030af-19b6-4b79-85ae-5cc523e74262}, !- Space Name
  Ground,                                 !- Outside Boundary Condition
  ,                                       !- Outside Boundary Condition Object
  NoSun,                                  !- Sun Exposure
  NoWind,                                 !- Wind Exposure
  ,                                       !- View Factor to Ground
  ,                                       !- Number of Vertices
  -1.24344978758018e-014, -1.77635683940025e-015, 0, !- X,Y,Z Vertex 1 {m}
  28.2189966410674, -1.77635683940025e-015, 0, !- X,Y,Z Vertex 2 {m}
  23.6469966410674, -4.572, 0,            !- X,Y,Z Vertex 3 {m}
  4.572, -4.572, 0;                       !- X,Y,Z Vertex 4 {m}

OS:Surface,
  {d720bc1a-ace2-4825-83d9-090c5ee0e099}, !- Handle
  Surface 8,                              !- Name
  Wall,                                   !- Surface Type
  ,                                       !- Construction Name
  {028030af-19b6-4b79-85ae-5cc523e74262}, !- Space Name
  Ground,                                 !- Outside Boundary Condition
  ,                                       !- Outside Boundary Condition Object
  NoSun,                                  !- Sun Exposure
  NoWind,                                 !- Wind Exposure
  ,                                       !- View Factor to Ground
  ,                                       !- Number of Vertices
  28.2189966410674, -1.77635683940025e-015, 3.9624, !- X,Y,Z Vertex 1 {m}
  28.2189966410674, -1.77635683940025e-015, 0, !- X,Y,Z Vertex 2 {m}
  -1.24344978758018e-014, -1.77635683940025e-015, 0, !- X,Y,Z Vertex 3 {m}
  -1.24344978758018e-014, -1.77635683940025e-015, 3.9624; !- X,Y,Z Vertex 4 {m}

OS:Surface,
  {c5e28b6f-44b3-48c4-8994-194f439b7330}, !- Handle
  Surface 9,                              !- Name
  Wall,                                   !- Surface Type
  ,                                       !- Construction Name
  {028030af-19b6-4b79-85ae-5cc523e74262}, !- Space Name
  Surface,                                !- Outside Boundary Condition
  {bb23b862-fef6-4787-8373-576d056ac562}, !- Outside Boundary Condition Object
  NoSun,                                  !- Sun Exposure
  NoWind,                                 !- Wind Exposure
  ,                                       !- View Factor to Ground
  ,                                       !- Number of Vertices
  23.6469966410674, -4.572, 3.9624,       !- X,Y,Z Vertex 1 {m}
  23.6469966410674, -4.572, 0,            !- X,Y,Z Vertex 2 {m}
  28.2189966410674, -1.77635683940025e-015, 0, !- X,Y,Z Vertex 3 {m}
  28.2189966410674, -1.77635683940025e-015, 3.9624; !- X,Y,Z Vertex 4 {m}

OS:Surface,
  {ebd4f26a-e20b-4f57-8c01-d4ee71c005a4}, !- Handle
  Surface 10,                             !- Name
  Wall,                                   !- Surface Type
  ,                                       !- Construction Name
  {028030af-19b6-4b79-85ae-5cc523e74262}, !- Space Name
  Surface,                                !- Outside Boundary Condition
  {99d07d13-4194-4f56-86be-5586e7ab8358}, !- Outside Boundary Condition Object
  NoSun,                                  !- Sun Exposure
  NoWind,                                 !- Wind Exposure
  ,                                       !- View Factor to Ground
  ,                                       !- Number of Vertices
  4.572, -4.572, 3.9624,                  !- X,Y,Z Vertex 1 {m}
  4.572, -4.572, 0,                       !- X,Y,Z Vertex 2 {m}
  23.6469966410674, -4.572, 0,            !- X,Y,Z Vertex 3 {m}
  23.6469966410674, -4.572, 3.9624;       !- X,Y,Z Vertex 4 {m}

OS:Surface,
  {e315c629-7b84-4f81-8025-25d8da0318e2}, !- Handle
  Surface 11,                             !- Name
  Wall,                                   !- Surface Type
  ,                                       !- Construction Name
  {028030af-19b6-4b79-85ae-5cc523e74262}, !- Space Name
  Surface,                                !- Outside Boundary Condition
  {70f44c8b-5b93-42ca-955f-f87c4bdd4085}, !- Outside Boundary Condition Object
  NoSun,                                  !- Sun Exposure
  NoWind,                                 !- Wind Exposure
  ,                                       !- View Factor to Ground
  ,                                       !- Number of Vertices
  -1.24344978758018e-014, -1.77635683940025e-015, 3.9624, !- X,Y,Z Vertex 1 {m}
  -1.24344978758018e-014, -1.77635683940025e-015, 0, !- X,Y,Z Vertex 2 {m}
  4.572, -4.572, 0,                       !- X,Y,Z Vertex 3 {m}
  4.572, -4.572, 3.9624;                  !- X,Y,Z Vertex 4 {m}

OS:Surface,
  {636ec743-49e2-4c5b-a039-f0f93d8105b1}, !- Handle
  Surface 12,                             !- Name
  RoofCeiling,                            !- Surface Type
  ,                                       !- Construction Name
  {028030af-19b6-4b79-85ae-5cc523e74262}, !- Space Name
  Surface,                                !- Outside Boundary Condition
  {e0e8a6f9-1aee-4ded-b0fa-328d54053497}, !- Outside Boundary Condition Object
  NoSun,                                  !- Sun Exposure
  NoWind,                                 !- Wind Exposure
  ,                                       !- View Factor to Ground
  ,                                       !- Number of Vertices
  4.572, -4.572, 3.9624,                  !- X,Y,Z Vertex 1 {m}
  23.6469966410674, -4.572, 3.9624,       !- X,Y,Z Vertex 2 {m}
  28.2189966410674, -1.77635683940025e-015, 3.9624, !- X,Y,Z Vertex 3 {m}
  -1.24344978758018e-014, -1.77635683940025e-015, 3.9624; !- X,Y,Z Vertex 4 {m}

OS:ThermalZone,
  {70eaea61-5662-4bd2-9cb6-329c98f6be61}, !- Handle
  Zone North Perimeter Space - Story B1,  !- Name
  1,                                      !- Multiplier
  ,                                       !- Ceiling Height {m}
  ,                                       !- Volume {m3}
  ,                                       !- Floor Area {m2}
  ,                                       !- Zone Inside Convection Algorithm
  ,                                       !- Zone Outside Convection Algorithm
  ,                                       !- Zone Conditioning Equipment List Name
  {f1abe602-a46d-4f18-8a01-796f8083135d}, !- Zone Air Inlet Port List
  {6a5a8284-2f92-4867-8b6d-5585f2d753eb}, !- Zone Air Exhaust Port List
  {88b539de-5544-4a75-b945-ae35a693c63b}, !- Zone Air Node Name
  {4a11e29d-4479-45b3-a389-b6aa6d4c5355}, !- Zone Return Air Port List
  ,                                       !- Primary Daylighting Control Name
  ,                                       !- Fraction of Zone Controlled by Primary Daylighting Control
  ,                                       !- Secondary Daylighting Control Name
  ,                                       !- Fraction of Zone Controlled by Secondary Daylighting Control
  ,                                       !- Illuminance Map Name
  ,                                       !- Group Rendering Name
  ,                                       !- Thermostat Name
  No;                                     !- Use Ideal Air Loads

OS:Node,
  {a3e8d2f4-55ec-4a93-8e63-0aac9308a675}, !- Handle
  Node 2,                                 !- Name
  {88b539de-5544-4a75-b945-ae35a693c63b}, !- Inlet Port
  ;                                       !- Outlet Port

OS:Connection,
  {88b539de-5544-4a75-b945-ae35a693c63b}, !- Handle
  {9a616b4f-f160-4f1b-ba53-cfabe78c3364}, !- Name
  {70eaea61-5662-4bd2-9cb6-329c98f6be61}, !- Source Object
  11,                                     !- Outlet Port
  {a3e8d2f4-55ec-4a93-8e63-0aac9308a675}, !- Target Object
  2;                                      !- Inlet Port

OS:PortList,
  {f1abe602-a46d-4f18-8a01-796f8083135d}, !- Handle
  {ea9d31a2-42af-482e-90a3-38355f202f7b}, !- Name
  {70eaea61-5662-4bd2-9cb6-329c98f6be61}; !- HVAC Component

OS:PortList,
  {6a5a8284-2f92-4867-8b6d-5585f2d753eb}, !- Handle
  {b926a0e8-a8fc-4741-aa63-4e5ce4e8ddd2}, !- Name
  {70eaea61-5662-4bd2-9cb6-329c98f6be61}; !- HVAC Component

OS:PortList,
  {4a11e29d-4479-45b3-a389-b6aa6d4c5355}, !- Handle
  {aad35ce5-30ac-4744-83f5-e54019ec6483}, !- Name
  {70eaea61-5662-4bd2-9cb6-329c98f6be61}; !- HVAC Component

OS:Sizing:Zone,
  {6ff3ef8b-3a71-40e2-919b-15dd17453363}, !- Handle
  {70eaea61-5662-4bd2-9cb6-329c98f6be61}, !- Zone or ZoneList Name
  SupplyAirTemperature,                   !- Zone Cooling Design Supply Air Temperature Input Method
  14,                                     !- Zone Cooling Design Supply Air Temperature {C}
  11.11,                                  !- Zone Cooling Design Supply Air Temperature Difference {deltaC}
  SupplyAirTemperature,                   !- Zone Heating Design Supply Air Temperature Input Method
  40,                                     !- Zone Heating Design Supply Air Temperature {C}
  11.11,                                  !- Zone Heating Design Supply Air Temperature Difference {deltaC}
  0.0085,                                 !- Zone Cooling Design Supply Air Humidity Ratio {kg-H2O/kg-air}
  0.008,                                  !- Zone Heating Design Supply Air Humidity Ratio {kg-H2O/kg-air}
  ,                                       !- Zone Heating Sizing Factor
  ,                                       !- Zone Cooling Sizing Factor
  DesignDay,                              !- Cooling Design Air Flow Method
  ,                                       !- Cooling Design Air Flow Rate {m3/s}
  ,                                       !- Cooling Minimum Air Flow per Zone Floor Area {m3/s-m2}
  ,                                       !- Cooling Minimum Air Flow {m3/s}
  ,                                       !- Cooling Minimum Air Flow Fraction
  DesignDay,                              !- Heating Design Air Flow Method
  ,                                       !- Heating Design Air Flow Rate {m3/s}
  ,                                       !- Heating Maximum Air Flow per Zone Floor Area {m3/s-m2}
  ,                                       !- Heating Maximum Air Flow {m3/s}
  ,                                       !- Heating Maximum Air Flow Fraction
  ,                                       !- Design Zone Air Distribution Effectiveness in Cooling Mode
  ,                                       !- Design Zone Air Distribution Effectiveness in Heating Mode
  No,                                     !- Account for Dedicated Outdoor Air System
  NeutralSupplyAir,                       !- Dedicated Outdoor Air System Control Strategy
  autosize,                               !- Dedicated Outdoor Air Low Setpoint Temperature for Design {C}
  autosize;                               !- Dedicated Outdoor Air High Setpoint Temperature for Design {C}

OS:ZoneHVAC:EquipmentList,
  {8c42ec1d-caa2-4f66-8a39-44a22c3d6c5a}, !- Handle
  Zone HVAC Equipment List 2,             !- Name
  {70eaea61-5662-4bd2-9cb6-329c98f6be61}; !- Thermal Zone

OS:Space,
  {5a3f09c8-f3cf-4bda-b3b3-7c4027ddbe16}, !- Handle
  East Perimeter Space - Story B1,        !- Name
  ,                                       !- Space Type Name
  ,                                       !- Default Construction Set Name
  ,                                       !- Default Schedule Set Name
  -0,                                     !- Direction of Relative North {deg}
  14.1094983205337,                       !- X Origin {m}
  9.40633221368912,                       !- Y Origin {m}
  -3.9624,                                !- Z Origin {m}
  {9e9247c0-200f-4196-b04f-64960c3ba7db}, !- Building Story Name
  {5c6f0042-93ed-46af-9acf-5df93b0efac1}; !- Thermal Zone Name

OS:Surface,
  {0d231c45-3b06-410e-b270-a59bbaeabd42}, !- Handle
  Surface 13,                             !- Name
  Floor,                                  !- Surface Type
  ,                                       !- Construction Name
  {5a3f09c8-f3cf-4bda-b3b3-7c4027ddbe16}, !- Space Name
  Ground,                                 !- Outside Boundary Condition
  ,                                       !- Outside Boundary Condition Object
  NoSun,                                  !- Sun Exposure
  NoWind,                                 !- Wind Exposure
  ,                                       !- View Factor to Ground
  ,                                       !- Number of Vertices
  1.24344978758018e-014, -1.77635683940025e-015, 0, !- X,Y,Z Vertex 1 {m}
  1.24344978758018e-014, -18.8126644273782, 0, !- X,Y,Z Vertex 2 {m}
  -4.572, -14.2406644273782, 0,           !- X,Y,Z Vertex 3 {m}
  -4.572, -4.572, 0;                      !- X,Y,Z Vertex 4 {m}

OS:Surface,
  {88f0e337-7330-473d-b25a-1cffb4e03571}, !- Handle
  Surface 14,                             !- Name
  Wall,                                   !- Surface Type
  ,                                       !- Construction Name
  {5a3f09c8-f3cf-4bda-b3b3-7c4027ddbe16}, !- Space Name
  Ground,                                 !- Outside Boundary Condition
  ,                                       !- Outside Boundary Condition Object
  NoSun,                                  !- Sun Exposure
  NoWind,                                 !- Wind Exposure
  ,                                       !- View Factor to Ground
  ,                                       !- Number of Vertices
  1.24344978758018e-014, -18.8126644273782, 3.9624, !- X,Y,Z Vertex 1 {m}
  1.24344978758018e-014, -18.8126644273782, 0, !- X,Y,Z Vertex 2 {m}
  1.24344978758018e-014, -1.77635683940025e-015, 0, !- X,Y,Z Vertex 3 {m}
  1.24344978758018e-014, -1.77635683940025e-015, 3.9624; !- X,Y,Z Vertex 4 {m}

OS:Surface,
  {a794b6c3-2357-4e2e-9dad-ce9b6bb86f9a}, !- Handle
  Surface 15,                             !- Name
  Wall,                                   !- Surface Type
  ,                                       !- Construction Name
  {5a3f09c8-f3cf-4bda-b3b3-7c4027ddbe16}, !- Space Name
  Surface,                                !- Outside Boundary Condition
  {4bf5d3f6-eb6d-434c-a3d6-8b2d74808a06}, !- Outside Boundary Condition Object
  NoSun,                                  !- Sun Exposure
  NoWind,                                 !- Wind Exposure
  ,                                       !- View Factor to Ground
  ,                                       !- Number of Vertices
  -4.572, -14.2406644273782, 3.9624,      !- X,Y,Z Vertex 1 {m}
  -4.572, -14.2406644273782, 0,           !- X,Y,Z Vertex 2 {m}
  1.24344978758018e-014, -18.8126644273782, 0, !- X,Y,Z Vertex 3 {m}
  1.24344978758018e-014, -18.8126644273782, 3.9624; !- X,Y,Z Vertex 4 {m}

OS:Surface,
  {c32c0e64-3f24-4373-9aed-95d0c1f35343}, !- Handle
  Surface 16,                             !- Name
  Wall,                                   !- Surface Type
  ,                                       !- Construction Name