
OS:Version,
  {f341e586-bfe1-42c6-a899-c3a68354f4b0}, !- Handle
  2.7.2;                                  !- Version Identifier

OS:SpaceType,
  {65cc7e7d-fa07-44bd-a2c1-e1621a090166}, !- Handle
  Office WholeBuilding - Md Office,       !- Name
  ,                                       !- Default Construction Set Name
  ,                                       !- Default Schedule Set Name
  {09838bc7-1157-402d-a7ff-ad5041e07708}, !- Group Rendering Name
  ,                                       !- Design Specification Outdoor Air Object Name
  ,                                       !- Standards Template
  Office,                                 !- Standards Building Type
  WholeBuilding - Md Office;              !- Standards Space Type

OS:Rendering:Color,
  {09838bc7-1157-402d-a7ff-ad5041e07708}, !- Handle
  Office WholeBuilding - Md Office,       !- Name
  120,                                    !- Rendering Red Value
  230,                                    !- Rendering Green Value
  199;                                    !- Rendering Blue Value

OS:Building,
  {759984c8-f36c-46f0-bb28-4b04233ffbe2}, !- Handle
  90.1-2004|MediumOffice,                 !- Name
  ,                                       !- Building Sector Type
  ,                                       !- North Axis {deg}
  ,                                       !- Nominal Floor to Floor Height {m}
  {65cc7e7d-fa07-44bd-a2c1-e1621a090166}, !- Space Type Name
  ,                                       !- Default Construction Set Name
  ;                                       !- Default Schedule Set Name

OS:Site,
  {10805b30-7190-449d-bb08-a84d62011922}, !- Handle
  Site 1,                                 !- Name
  ,                                       !- Latitude {deg}
  ,                                       !- Longitude {deg}
  ,                                       !- Time Zone {hr}
  ,                                       !- Elevation {m}
  ;                                       !- Terrain

OS:BuildingStory,
  {6f5a0635-33f3-4449-baf4-b816d20d3278}, !- Handle
  Story B1,                               !- Name
  -3.9624,                                !- Nominal Z Coordinate {m}
  3.9624,                                 !- Nominal Floor to Floor Height {m}
  ,                                       !- Default Construction Set Name
  ,                                       !- Default Schedule Set Name
  ;                                       !- Group Rendering Name

OS:Space,
  {92988800-f6c2-4dd1-b160-05d7d61ceaca}, !- Handle
  West Perimeter Space - Story B1,        !- Name
  ,                                       !- Space Type Name
  ,                                       !- Default Construction Set Name
  ,                                       !- Default Schedule Set Name
  -0,                                     !- Direction of Relative North {deg}
  -14.1094983205337,                      !- X Origin {m}
  -9.40633221368912,                      !- Y Origin {m}
  -3.9624,                                !- Z Origin {m}
  {6f5a0635-33f3-4449-baf4-b816d20d3278}, !- Building Story Name
  {89e5caa1-2a82-4569-878f-9938359878fc}; !- Thermal Zone Name

OS:Surface,
  {66828954-33b4-4e62-8d77-e08d16d62357}, !- Handle
  Surface 1,                              !- Name
  Floor,                                  !- Surface Type
  ,                                       !- Construction Name
  {92988800-f6c2-4dd1-b160-05d7d61ceaca}, !- Space Name
  Ground,                                 !- Outside Boundary Condition
  ,                                       !- Outside Boundary Condition Object
  NoSun,                                  !- Sun Exposure
  NoWind,                                 !- Wind Exposure
  ,                                       !- View Factor to Ground
  ,                                       !- Number of Vertices
  -1.24344978758018e-014, 1.77635683940025e-015, 0, !- X,Y,Z Vertex 1 {m}
  -1.24344978758018e-014, 18.8126644273782, 0, !- X,Y,Z Vertex 2 {m}
  4.572, 14.2406644273782, 0,             !- X,Y,Z Vertex 3 {m}
  4.572, 4.572, 0;                        !- X,Y,Z Vertex 4 {m}

OS:Surface,
  {e95291f7-a26e-4439-9814-a34b7ca0e712}, !- Handle
  Surface 2,                              !- Name
  Wall,                                   !- Surface Type
  ,                                       !- Construction Name
  {92988800-f6c2-4dd1-b160-05d7d61ceaca}, !- Space Name
  Ground,                                 !- Outside Boundary Condition
  ,                                       !- Outside Boundary Condition Object
  NoSun,                                  !- Sun Exposure
  NoWind,                                 !- Wind Exposure
  ,                                       !- View Factor to Ground
  ,                                       !- Number of Vertices
  -1.24344978758018e-014, 18.8126644273782, 3.9624, !- X,Y,Z Vertex 1 {m}
  -1.24344978758018e-014, 18.8126644273782, 0, !- X,Y,Z Vertex 2 {m}
  -1.24344978758018e-014, 1.77635683940025e-015, 0, !- X,Y,Z Vertex 3 {m}
  -1.24344978758018e-014, 1.77635683940025e-015, 3.9624; !- X,Y,Z Vertex 4 {m}

OS:Surface,
  {50a743a4-8c11-4c9e-8596-0eee8e383b1d}, !- Handle
  Surface 3,                              !- Name
  Wall,                                   !- Surface Type
  ,                                       !- Construction Name
  {92988800-f6c2-4dd1-b160-05d7d61ceaca}, !- Space Name
  Surface,                                !- Outside Boundary Condition
  {534274ec-dd07-47a5-9901-f905ba609d33}, !- Outside Boundary Condition Object
  NoSun,                                  !- Sun Exposure
  NoWind,                                 !- Wind Exposure
  ,                                       !- View Factor to Ground
  ,                                       !- Number of Vertices
  4.572, 14.2406644273782, 3.9624,        !- X,Y,Z Vertex 1 {m}
  4.572, 14.2406644273782, 0,             !- X,Y,Z Vertex 2 {m}
  -1.24344978758018e-014, 18.8126644273782, 0, !- X,Y,Z Vertex 3 {m}
  -1.24344978758018e-014, 18.8126644273782, 3.9624; !- X,Y,Z Vertex 4 {m}

OS:Surface,
  {ee0d4042-29d4-471e-8f44-ca26abd2a23b}, !- Handle
  Surface 4,                              !- Name
  Wall,                                   !- Surface Type
  ,                                       !- Construction Name
  {92988800-f6c2-4dd1-b160-05d7d61ceaca}, !- Space Name
  Surface,                                !- Outside Boundary Condition
  {b6395333-2f92-44ef-9cad-e4a6b4412218}, !- Outside Boundary Condition Object
  NoSun,                                  !- Sun Exposure
  NoWind,                                 !- Wind Exposure
  ,                                       !- View Factor to Ground
  ,                                       !- Number of Vertices
  4.572, 4.572, 3.9624,                   !- X,Y,Z Vertex 1 {m}
  4.572, 4.572, 0,                        !- X,Y,Z Vertex 2 {m}
  4.572, 14.2406644273782, 0,             !- X,Y,Z Vertex 3 {m}
  4.572, 14.2406644273782, 3.9624;        !- X,Y,Z Vertex 4 {m}

OS:Surface,
  {7595b1e3-3635-4f32-8d8e-ba9a3e71defd}, !- Handle
  Surface 5,                              !- Name
  Wall,                                   !- Surface Type
  ,                                       !- Construction Name
  {92988800-f6c2-4dd1-b160-05d7d61ceaca}, !- Space Name
  Surface,                                !- Outside Boundary Condition
  {2a248cc0-56a7-4f98-b8fd-4ffc0652c944}, !- Outside Boundary Condition Object
  NoSun,                                  !- Sun Exposure
  NoWind,                                 !- Wind Exposure
  ,                                       !- View Factor to Ground
  ,                                       !- Number of Vertices
  -1.24344978758018e-014, 1.77635683940025e-015, 3.9624, !- X,Y,Z Vertex 1 {m}
  -1.24344978758018e-014, 1.77635683940025e-015, 0, !- X,Y,Z Vertex 2 {m}
  4.572, 4.572, 0,                        !- X,Y,Z Vertex 3 {m}
  4.572, 4.572, 3.9624;                   !- X,Y,Z Vertex 4 {m}

OS:Surface,
  {0b398d4d-4b77-4a7a-8a40-1749853d358b}, !- Handle
  Surface 6,                              !- Name
  RoofCeiling,                            !- Surface Type
  ,                                       !- Construction Name
  {92988800-f6c2-4dd1-b160-05d7d61ceaca}, !- Space Name
  Surface,                                !- Outside Boundary Condition
  {5a9eff6c-067b-49c9-95f3-95800d124f58}, !- Outside Boundary Condition Object
  NoSun,                                  !- Sun Exposure
  NoWind,                                 !- Wind Exposure
  ,                                       !- View Factor to Ground
  ,                                       !- Number of Vertices
  4.572, 4.572, 3.9624,                   !- X,Y,Z Vertex 1 {m}
  4.572, 14.2406644273782, 3.9624,        !- X,Y,Z Vertex 2 {m}
  -1.24344978758018e-014, 18.8126644273782, 3.9624, !- X,Y,Z Vertex 3 {m}
  -1.24344978758018e-014, 1.77635683940025e-015, 3.9624; !- X,Y,Z Vertex 4 {m}

OS:ThermalZone,
  {89e5caa1-2a82-4569-878f-9938359878fc}, !- Handle
  Zone West Perimeter Space - Story B1,   !- Name
  1,                                      !- Multiplier
  ,                                       !- Ceiling Height {m}
  ,                                       !- Volume {m3}
  ,                                       !- Floor Area {m2}
  ,                                       !- Zone Inside Convection Algorithm
  ,                                       !- Zone Outside Convection Algorithm
  ,                                       !- Zone Conditioning Equipment List Name
  {fe5dff00-88c9-4392-8bb3-5d65d91594b4}, !- Zone Air Inlet Port List
  {bc172942-716c-4b12-9ba7-21fdf58010e5}, !- Zone Air Exhaust Port List
  {f51a788c-5059-403a-8d71-f1b39995b1ba}, !- Zone Air Node Name
  {c846423d-5c4d-4246-bcd2-91cd35c60c63}, !- Zone Return Air Port List
  ,                                       !- Primary Daylighting Control Name
  ,                                       !- Fraction of Zone Controlled by Primary Daylighting Control
  ,                                       !- Secondary Daylighting Control Name
  ,                                       !- Fraction of Zone Controlled by Secondary Daylighting Control
  ,                                       !- Illuminance Map Name
  ,                                       !- Group Rendering Name
  ,                                       !- Thermostat Name
  No;                                     !- Use Ideal Air Loads

OS:Node,
  {8b71147b-bb5a-4c47-adf3-97678d3f2e1e}, !- Handle
  Node 1,                                 !- Name
  {f51a788c-5059-403a-8d71-f1b39995b1ba}, !- Inlet Port
  ;                                       !- Outlet Port

OS:Connection,
  {f51a788c-5059-403a-8d71-f1b39995b1ba}, !- Handle
  {a54c7ea3-6b1e-42d5-9f6e-bc3bafe751b2}, !- Name
  {89e5caa1-2a82-4569-878f-9938359878fc}, !- Source Object
  11,                                     !- Outlet Port
  {8b71147b-bb5a-4c47-adf3-97678d3f2e1e}, !- Target Object
  2;                                      !- Inlet Port

OS:PortList,
  {fe5dff00-88c9-4392-8bb3-5d65d91594b4}, !- Handle
  {28819480-0984-4856-9f1b-9c6948020f60}, !- Name
  {89e5caa1-2a82-4569-878f-9938359878fc}; !- HVAC Component

OS:PortList,
  {bc172942-716c-4b12-9ba7-21fdf58010e5}, !- Handle
  {54514d28-5e0d-49e3-9c62-e34321dd5504}, !- Name
  {89e5caa1-2a82-4569-878f-9938359878fc}; !- HVAC Component

OS:PortList,
  {c846423d-5c4d-4246-bcd2-91cd35c60c63}, !- Handle
  {3ee43d8c-9509-451a-9df6-3999806c89da}, !- Name
  {89e5caa1-2a82-4569-878f-9938359878fc}; !- HVAC Component

OS:Sizing:Zone,
  {847d695c-7e5c-498e-b8ab-3e04dc93a66d}, !- Handle
  {89e5caa1-2a82-4569-878f-9938359878fc}, !- Zone or ZoneList Name
  SupplyAirTemperature,                   !- Zone Cooling Design Supply Air Temperature Input Method
  14,                                     !- Zone Cooling Design Supply Air Temperature {C}
  11.11,                                  !- Zone Cooling Design Supply Air Temperature Difference {deltaC}
  SupplyAirTemperature,                   !- Zone Heating Design Supply Air Temperature Input Method
  40,                                     !- Zone Heating Design Supply Air Temperature {C}
  11.11,                                  !- Zone Heating Design Supply Air Temperature Difference {deltaC}
  0.0085,                                 !- Zone Cooling Design Supply Air Humidity Ratio {kg-H2O/kg-air}
  0.008,                                  !- Zone Heating Design Supply Air Humidity Ratio {kg-H2O/kg-air}
  ,                                       !- Zone Heating Sizing Factor
  ,                                       !- Zone Cooling Sizing Factor
  DesignDay,                              !- Cooling Design Air Flow Method
  ,                                       !- Cooling Design Air Flow Rate {m3/s}
  ,                                       !- Cooling Minimum Air Flow per Zone Floor Area {m3/s-m2}
  ,                                       !- Cooling Minimum Air Flow {m3/s}
  ,                                       !- Cooling Minimum Air Flow Fraction
  DesignDay,                              !- Heating Design Air Flow Method
  ,                                       !- Heating Design Air Flow Rate {m3/s}
  ,                                       !- Heating Maximum Air Flow per Zone Floor Area {m3/s-m2}
  ,                                       !- Heating Maximum Air Flow {m3/s}
  ,                                       !- Heating Maximum Air Flow Fraction
  ,                                       !- Design Zone Air Distribution Effectiveness in Cooling Mode
  ,                                       !- Design Zone Air Distribution Effectiveness in Heating Mode
  No,                                     !- Account for Dedicated Outdoor Air System
  NeutralSupplyAir,                       !- Dedicated Outdoor Air System Control Strategy
  autosize,                               !- Dedicated Outdoor Air Low Setpoint Temperature for Design {C}
  autosize;                               !- Dedicated Outdoor Air High Setpoint Temperature for Design {C}

OS:ZoneHVAC:EquipmentList,
  {f8771ea2-e233-410a-b388-2b656b82e15d}, !- Handle
  Zone HVAC Equipment List 1,             !- Name
  {89e5caa1-2a82-4569-878f-9938359878fc}; !- Thermal Zone

OS:Space,
  {7ac2bf8a-e041-45af-83bd-edd1f1a1676f}, !- Handle
  North Perimeter Space - Story B1,       !- Name
  ,                                       !- Space Type Name
  ,                                       !- Default Construction Set Name
  ,                                       !- Default Schedule Set Name
  -0,                                     !- Direction of Relative North {deg}
  -14.1094983205337,                      !- X Origin {m}
  9.40633221368912,                       !- Y Origin {m}
  -3.9624,                                !- Z Origin {m}
  {6f5a0635-33f3-4449-baf4-b816d20d3278}, !- Building Story Name
  {897668df-2993-4fa8-99a3-9e022bad36cf}; !- Thermal Zone Name

OS:Surface,
  {ac0aab35-d603-43db-985d-259f060f3017}, !- Handle
  Surface 7,                              !- Name
  Floor,                                  !- Surface Type
  ,                                       !- Construction Name
  {7ac2bf8a-e041-45af-83bd-edd1f1a1676f}, !- Space Name
  Ground,                                 !- Outside Boundary Condition
  ,                                       !- Outside Boundary Condition Object
  NoSun,                                  !- Sun Exposure
  NoWind,                                 !- Wind Exposure
  ,                                       !- View Factor to Ground
  ,                                       !- Number of Vertices
  -1.24344978758018e-014, -1.77635683940025e-015, 0, !- X,Y,Z Vertex 1 {m}
  28.2189966410674, -1.77635683940025e-015, 0, !- X,Y,Z Vertex 2 {m}
  23.6469966410674, -4.572, 0,            !- X,Y,Z Vertex 3 {m}
  4.572, -4.572, 0;                       !- X,Y,Z Vertex 4 {m}

OS:Surface,
  {e2aec205-3634-4c35-b8ee-ced53de8a32d}, !- Handle
  Surface 8,                              !- Name
  Wall,                                   !- Surface Type
  ,                                       !- Construction Name
  {7ac2bf8a-e041-45af-83bd-edd1f1a1676f}, !- Space Name
  Ground,                                 !- Outside Boundary Condition
  ,                                       !- Outside Boundary Condition Object
  NoSun,                                  !- Sun Exposure
  NoWind,                                 !- Wind Exposure
  ,                                       !- View Factor to Ground
  ,                                       !- Number of Vertices
  28.2189966410674, -1.77635683940025e-015, 3.9624, !- X,Y,Z Vertex 1 {m}
  28.2189966410674, -1.77635683940025e-015, 0, !- X,Y,Z Vertex 2 {m}
  -1.24344978758018e-014, -1.77635683940025e-015, 0, !- X,Y,Z Vertex 3 {m}
  -1.24344978758018e-014, -1.77635683940025e-015, 3.9624; !- X,Y,Z Vertex 4 {m}

OS:Surface,
  {2d149a88-91fe-40cf-9786-351e6464cb96}, !- Handle
  Surface 9,                              !- Name
  Wall,                                   !- Surface Type
  ,                                       !- Construction Name
  {7ac2bf8a-e041-45af-83bd-edd1f1a1676f}, !- Space Name
  Surface,                                !- Outside Boundary Condition
  {2bd2fdff-c7bb-4c69-a3be-2133d0e6b17b}, !- Outside Boundary Condition Object
  NoSun,                                  !- Sun Exposure
  NoWind,                                 !- Wind Exposure
  ,                                       !- View Factor to Ground
  ,                                       !- Number of Vertices
  23.6469966410674, -4.572, 3.9624,       !- X,Y,Z Vertex 1 {m}
  23.6469966410674, -4.572, 0,            !- X,Y,Z Vertex 2 {m}
  28.2189966410674, -1.77635683940025e-015, 0, !- X,Y,Z Vertex 3 {m}
  28.2189966410674, -1.77635683940025e-015, 3.9624; !- X,Y,Z Vertex 4 {m}

OS:Surface,
  {f856e467-881f-4fb5-a958-e861fa2cb270}, !- Handle
  Surface 10,                             !- Name
  Wall,                                   !- Surface Type
  ,                                       !- Construction Name
  {7ac2bf8a-e041-45af-83bd-edd1f1a1676f}, !- Space Name
  Surface,                                !- Outside Boundary Condition
  {14618aaa-4abd-44d3-99f5-aa3df92cae7d}, !- Outside Boundary Condition Object
  NoSun,                                  !- Sun Exposure
  NoWind,                                 !- Wind Exposure
  ,                                       !- View Factor to Ground
  ,                                       !- Number of Vertices
  4.572, -4.572, 3.9624,                  !- X,Y,Z Vertex 1 {m}
  4.572, -4.572, 0,                       !- X,Y,Z Vertex 2 {m}
  23.6469966410674, -4.572, 0,            !- X,Y,Z Vertex 3 {m}
  23.6469966410674, -4.572, 3.9624;       !- X,Y,Z Vertex 4 {m}

OS:Surface,
  {534274ec-dd07-47a5-9901-f905ba609d33}, !- Handle
  Surface 11,                             !- Name
  Wall,                                   !- Surface Type
  ,                                       !- Construction Name
  {7ac2bf8a-e041-45af-83bd-edd1f1a1676f}, !- Space Name
  Surface,                                !- Outside Boundary Condition
  {50a743a4-8c11-4c9e-8596-0eee8e383b1d}, !- Outside Boundary Condition Object
  NoSun,                                  !- Sun Exposure
  NoWind,                                 !- Wind Exposure
  ,                                       !- View Factor to Ground
  ,                                       !- Number of Vertices
  -1.24344978758018e-014, -1.77635683940025e-015, 3.9624, !- X,Y,Z Vertex 1 {m}
  -1.24344978758018e-014, -1.77635683940025e-015, 0, !- X,Y,Z Vertex 2 {m}
  4.572, -4.572, 0,                       !- X,Y,Z Vertex 3 {m}
  4.572, -4.572, 3.9624;                  !- X,Y,Z Vertex 4 {m}

OS:Surface,
  {46e1cd74-2529-43ac-a29c-c9ae3b313f92}, !- Handle
  Surface 12,                             !- Name
  RoofCeiling,                            !- Surface Type
  ,                                       !- Construction Name
  {7ac2bf8a-e041-45af-83bd-edd1f1a1676f}, !- Space Name
  Surface,                                !- Outside Boundary Condition
  {867e4f69-517e-4803-8d80-225c42156b5f}, !- Outside Boundary Condition Object
  NoSun,                                  !- Sun Exposure
  NoWind,                                 !- Wind Exposure
  ,                                       !- View Factor to Ground
  ,                                       !- Number of Vertices
  4.572, -4.572, 3.9624,                  !- X,Y,Z Vertex 1 {m}
  23.6469966410674, -4.572, 3.9624,       !- X,Y,Z Vertex 2 {m}
  28.2189966410674, -1.77635683940025e-015, 3.9624, !- X,Y,Z Vertex 3 {m}
  -1.24344978758018e-014, -1.77635683940025e-015, 3.9624; !- X,Y,Z Vertex 4 {m}

OS:ThermalZone,
  {897668df-2993-4fa8-99a3-9e022bad36cf}, !- Handle
  Zone North Perimeter Space - Story B1,  !- Name
  1,                                      !- Multiplier
  ,                                       !- Ceiling Height {m}
  ,                                       !- Volume {m3}
  ,                                       !- Floor Area {m2}
  ,                                       !- Zone Inside Convection Algorithm
  ,                                       !- Zone Outside Convection Algorithm
  ,                                       !- Zone Conditioning Equipment List Name
  {df81318f-2890-4d2e-92d9-db354b2ad114}, !- Zone Air Inlet Port List
  {4e569df9-98d1-408a-83da-2944e52d7250}, !- Zone Air Exhaust Port List
  {a44b3186-4fc4-4915-a66a-1ba8ba666ae8}, !- Zone Air Node Name
  {86e06e22-bc08-49fc-bae9-2c12346516b5}, !- Zone Return Air Port List
  ,                                       !- Primary Daylighting Control Name
  ,                                       !- Fraction of Zone Controlled by Primary Daylighting Control
  ,                                       !- Secondary Daylighting Control Name
  ,                                       !- Fraction of Zone Controlled by Secondary Daylighting Control
  ,                                       !- Illuminance Map Name
  ,                                       !- Group Rendering Name
  ,                                       !- Thermostat Name
  No;                                     !- Use Ideal Air Loads

OS:Node,
  {d3e03c7e-d512-478d-a6de-e09e79ea2e28}, !- Handle
  Node 2,                                 !- Name
  {a44b3186-4fc4-4915-a66a-1ba8ba666ae8}, !- Inlet Port
  ;                                       !- Outlet Port

OS:Connection,
  {a44b3186-4fc4-4915-a66a-1ba8ba666ae8}, !- Handle
  {94bf7980-cc2a-4891-be28-76ce554e0e6c}, !- Name
  {897668df-2993-4fa8-99a3-9e022bad36cf}, !- Source Object
  11,                                     !- Outlet Port
  {d3e03c7e-d512-478d-a6de-e09e79ea2e28}, !- Target Object
  2;                                      !- Inlet Port

OS:PortList,
  {df81318f-2890-4d2e-92d9-db354b2ad114}, !- Handle
  {d4762bdc-fa5c-414f-9955-40152654b781}, !- Name
  {897668df-2993-4fa8-99a3-9e022bad36cf}; !- HVAC Component

OS:PortList,
  {4e569df9-98d1-408a-83da-2944e52d7250}, !- Handle
  {a5ddb5e5-ce49-4c21-8420-eafabfb4e91b}, !- Name
  {897668df-2993-4fa8-99a3-9e022bad36cf}; !- HVAC Component

OS:PortList,
  {86e06e22-bc08-49fc-bae9-2c12346516b5}, !- Handle
  {fbfa3cb2-e055-43c4-bc71-5960bcebf2cf}, !- Name
  {897668df-2993-4fa8-99a3-9e022bad36cf}; !- HVAC Component

OS:Sizing:Zone,
  {26f92933-7968-428c-a567-53b4a872228a}, !- Handle
  {897668df-2993-4fa8-99a3-9e022bad36cf}, !- Zone or ZoneList Name
  SupplyAirTemperature,                   !- Zone Cooling Design Supply Air Temperature Input Method
  14,                                     !- Zone Cooling Design Supply Air Temperature {C}
  11.11,                                  !- Zone Cooling Design Supply Air Temperature Difference {deltaC}
  SupplyAirTemperature,                   !- Zone Heating Design Supply Air Temperature Input Method
  40,                                     !- Zone Heating Design Supply Air Temperature {C}
  11.11,                                  !- Zone Heating Design Supply Air Temperature Difference {deltaC}
  0.0085,                                 !- Zone Cooling Design Supply Air Humidity Ratio {kg-H2O/kg-air}
  0.008,                                  !- Zone Heating Design Supply Air Humidity Ratio {kg-H2O/kg-air}
  ,                                       !- Zone Heating Sizing Factor
  ,                                       !- Zone Cooling Sizing Factor
  DesignDay,                              !- Cooling Design Air Flow Method
  ,                                       !- Cooling Design Air Flow Rate {m3/s}
  ,                                       !- Cooling Minimum Air Flow per Zone Floor Area {m3/s-m2}
  ,                                       !- Cooling Minimum Air Flow {m3/s}
  ,                                       !- Cooling Minimum Air Flow Fraction
  DesignDay,                              !- Heating Design Air Flow Method
  ,                                       !- Heating Design Air Flow Rate {m3/s}
  ,                                       !- Heating Maximum Air Flow per Zone Floor Area {m3/s-m2}
  ,                                       !- Heating Maximum Air Flow {m3/s}
  ,                                       !- Heating Maximum Air Flow Fraction
  ,                                       !- Design Zone Air Distribution Effectiveness in Cooling Mode
  ,                                       !- Design Zone Air Distribution Effectiveness in Heating Mode
  No,                                     !- Account for Dedicated Outdoor Air System
  NeutralSupplyAir,                       !- Dedicated Outdoor Air System Control Strategy
  autosize,                               !- Dedicated Outdoor Air Low Setpoint Temperature for Design {C}
  autosize;                               !- Dedicated Outdoor Air High Setpoint Temperature for Design {C}

OS:ZoneHVAC:EquipmentList,
  {8d1ef285-fe4b-4df6-b5ff-69569ab1f2f4}, !- Handle
  Zone HVAC Equipment List 2,             !- Name
  {897668df-2993-4fa8-99a3-9e022bad36cf}; !- Thermal Zone

OS:Space,
  {12a72710-c478-4a37-bf60-554210cba421}, !- Handle
  East Perimeter Space - Story B1,        !- Name
  ,                                       !- Space Type Name
  ,                                       !- Default Construction Set Name
  ,                                       !- Default Schedule Set Name
  -0,                                     !- Direction of Relative North {deg}
  14.1094983205337,                       !- X Origin {m}
  9.40633221368912,                       !- Y Origin {m}
  -3.9624,                                !- Z Origin {m}
  {6f5a0635-33f3-4449-baf4-b816d20d3278}, !- Building Story Name
  {0b441eaa-0fc1-437b-a73d-809f1c221b7b}; !- Thermal Zone Name

OS:Surface,
  {75a29a7c-cb61-4b94-8cf9-94a2990c038c}, !- Handle
  Surface 13,                             !- Name
  Floor,                                  !- Surface Type
  ,                                       !- Construction Name
  {12a72710-c478-4a37-bf60-554210cba421}, !- Space Name
  Ground,                                 !- Outside Boundary Condition
  ,                                       !- Outside Boundary Condition Object
  NoSun,                                  !- Sun Exposure
  NoWind,                                 !- Wind Exposure
  ,                                       !- View Factor to Ground
  ,                                       !- Number of Vertices
  1.24344978758018e-014, -1.77635683940025e-015, 0, !- X,Y,Z Vertex 1 {m}
  1.24344978758018e-014, -18.8126644273782, 0, !- X,Y,Z Vertex 2 {m}
  -4.572, -14.2406644273782, 0,           !- X,Y,Z Vertex 3 {m}
  -4.572, -4.572, 0;                      !- X,Y,Z Vertex 4 {m}

OS:Surface,
  {aa856ec3-42b9-464c-aa31-7f8090ea0ad2}, !- Handle
  Surface 14,                             !- Name
  Wall,                                   !- Surface Type
  ,                                       !- Construction Name
  {12a72710-c478-4a37-bf60-554210cba421}, !- Space Name
  Ground,                                 !- Outside Boundary Condition
  ,                                       !- Outside Boundary Condition Object
  NoSun,                                  !- Sun Exposure
  NoWind,                                 !- Wind Exposure
  ,                                       !- View Factor to Ground
  ,                                       !- Number of Vertices
  1.24344978758018e-014, -18.8126644273782, 3.9624, !- X,Y,Z Vertex 1 {m}
  1.24344978758018e-014, -18.8126644273782, 0, !- X,Y,Z Vertex 2 {m}
  1.24344978758018e-014, -1.77635683940025e-015, 0, !- X,Y,Z Vertex 3 {m}
  1.24344978758018e-014, -1.77635683940025e-015, 3.9624; !- X,Y,Z Vertex 4 {m}

OS:Surface,
  {84f7bad4-6591-486d-9d7d-633f5499dd99}, !- Handle
  Surface 15,                             !- Name
  Wall,                                   !- Surface Type
  ,                                       !- Construction Name
  {12a72710-c478-4a37-bf60-554210cba421}, !- Space Name
  Surface,                                !- Outside Boundary Condition
  {8ed9007f-d443-4ccd-b4d6-1e2bf91a4b68}, !- Outside Boundary Condition Object
  NoSun,                                  !- Sun Exposure
  NoWind,                                 !- Wind Exposure
  ,                                       !- View Factor to Ground
  ,                                       !- Number of Vertices
  -4.572, -14.2406644273782, 3.9624,      !- X,Y,Z Vertex 1 {m}
  -4.572, -14.2406644273782, 0,           !- X,Y,Z Vertex 2 {m}
  1.24344978758018e-014, -18.8126644273782, 0, !- X,Y,Z Vertex 3 {m}
  1.24344978758018e-014, -18.8126644273782, 3.9624; !- X,Y,Z Vertex 4 {m}

OS:Surface,
  {60310004-e739-466b-8415-c9fa99bf5c38}, !- Handle
  Surface 16,                             !- Name
  Wall,                                   !- Surface Type
  ,                                       !- Construction Name