
OS:Version,
  {45c7b739-8c6c-4219-ab53-73db0eaed7da}, !- Handle
  2.7.2;                                  !- Version Identifier

OS:SpaceType,
  {1e08618e-3d74-4662-b5d9-821c89eb0971}, !- Handle
  SecondarySchool Auditorium,             !- Name
  ,                                       !- Default Construction Set Name
  ,                                       !- Default Schedule Set Name
  {5e6c607a-b812-4f80-b663-af03da8b96c4}, !- Group Rendering Name
  ,                                       !- Design Specification Outdoor Air Object Name
  ,                                       !- Standards Template
  SecondarySchool,                        !- Standards Building Type
  Auditorium;                             !- Standards Space Type

OS:Rendering:Color,
  {5e6c607a-b812-4f80-b663-af03da8b96c4}, !- Handle
  SecondarySchool Auditorium,             !- Name
  230,                                    !- Rendering Red Value
  196,                                    !- Rendering Green Value
  120;                                    !- Rendering Blue Value

OS:SpaceType,
  {ab0ffc2f-313b-4467-9890-f1e179c52acb}, !- Handle
  SecondarySchool Cafeteria,              !- Name
  ,                                       !- Default Construction Set Name
  ,                                       !- Default Schedule Set Name
  {6db25877-c837-4e1c-8d6c-2dfef07f246b}, !- Group Rendering Name
  ,                                       !- Design Specification Outdoor Air Object Name
  ,                                       !- Standards Template
  SecondarySchool,                        !- Standards Building Type
  Cafeteria;                              !- Standards Space Type

OS:Rendering:Color,
  {6db25877-c837-4e1c-8d6c-2dfef07f246b}, !- Handle
  SecondarySchool Cafeteria,              !- Name
  31,                                     !- Rendering Red Value
  169,                                    !- Rendering Green Value
  34;                                     !- Rendering Blue Value

OS:SpaceType,
  {eef61d50-e6e4-447f-a9db-1b5c4f8151a3}, !- Handle
  SecondarySchool Classroom,              !- Name
  ,                                       !- Default Construction Set Name
  ,                                       !- Default Schedule Set Name
  {8a2f4f13-1573-47b3-a851-3c7507e5bf18}, !- Group Rendering Name
  ,                                       !- Design Specification Outdoor Air Object Name
  ,                                       !- Standards Template
  SecondarySchool,                        !- Standards Building Type
  Classroom;                              !- Standards Space Type

OS:Rendering:Color,
  {8a2f4f13-1573-47b3-a851-3c7507e5bf18}, !- Handle
  SecondarySchool Classroom,              !- Name
  120,                                    !- Rendering Red Value
  230,                                    !- Rendering Green Value
  199;                                    !- Rendering Blue Value

OS:SpaceType,
  {ecbc67dd-42cc-4446-a95c-023636baed2e}, !- Handle
  SecondarySchool Corridor,               !- Name
  ,                                       !- Default Construction Set Name
  ,                                       !- Default Schedule Set Name
  {efddb0dc-830a-463f-97bd-ac410d8085a5}, !- Group Rendering Name
  ,                                       !- Design Specification Outdoor Air Object Name
  ,                                       !- Standards Template
  SecondarySchool,                        !- Standards Building Type
  Corridor;                               !- Standards Space Type

OS:Rendering:Color,
  {efddb0dc-830a-463f-97bd-ac410d8085a5}, !- Handle
  SecondarySchool Corridor,               !- Name
  169,                                    !- Rendering Red Value
  31,                                     !- Rendering Green Value
  31;                                     !- Rendering Blue Value

OS:SpaceType,
  {8969ea2f-07e7-43cb-88ef-c1ae95b2e744}, !- Handle
  SecondarySchool Gym,                    !- Name
  ,                                       !- Default Construction Set Name
  ,                                       !- Default Schedule Set Name
  {3c26c742-a8a0-4112-8892-00e589adbb32}, !- Group Rendering Name
  ,                                       !- Design Specification Outdoor Air Object Name
  ,                                       !- Standards Template
  SecondarySchool,                        !- Standards Building Type
  Gym;                                    !- Standards Space Type

OS:Rendering:Color,
  {3c26c742-a8a0-4112-8892-00e589adbb32}, !- Handle
  SecondarySchool Gym,                    !- Name
  154,                                    !- Rendering Red Value
  230,                                    !- Rendering Green Value
  120;                                    !- Rendering Blue Value

OS:SpaceType,
  {6e4dce00-0f12-43dd-8fad-d783247d68ec}, !- Handle
  SecondarySchool Kitchen,                !- Name
  ,                                       !- Default Construction Set Name
  ,                                       !- Default Schedule Set Name
  {7df0e9a1-7249-40c1-ba66-ddcad6945354}, !- Group Rendering Name
  ,                                       !- Design Specification Outdoor Air Object Name
  ,                                       !- Standards Template
  SecondarySchool,                        !- Standards Building Type
  Kitchen;                                !- Standards Space Type

OS:Rendering:Color,
  {7df0e9a1-7249-40c1-ba66-ddcad6945354}, !- Handle
  SecondarySchool Kitchen,                !- Name
  78,                                     !- Rendering Red Value
  222,                                    !- Rendering Green Value
  133;                                    !- Rendering Blue Value

OS:SpaceType,
  {151ad2d7-120a-48d9-948f-0a40c3e35a44}, !- Handle
  SecondarySchool Library,                !- Name
  ,                                       !- Default Construction Set Name
  ,                                       !- Default Schedule Set Name
  {af910975-a98c-4f54-9f21-944c5294a880}, !- Group Rendering Name
  ,                                       !- Design Specification Outdoor Air Object Name
  ,                                       !- Standards Template
  SecondarySchool,                        !- Standards Building Type
  Library;                                !- Standards Space Type

OS:Rendering:Color,
  {af910975-a98c-4f54-9f21-944c5294a880}, !- Handle
  SecondarySchool Library,                !- Name
  230,                                    !- Rendering Red Value
  196,                                    !- Rendering Green Value
  120;                                    !- Rendering Blue Value

OS:SpaceType,
  {a236b4df-e037-46bc-8027-6303f6d703ba}, !- Handle
  SecondarySchool Lobby,                  !- Name
  ,                                       !- Default Construction Set Name
  ,                                       !- Default Schedule Set Name
  {494128f1-8653-4b67-8f15-abeede00e7b5}, !- Group Rendering Name
  ,                                       !- Design Specification Outdoor Air Object Name
  ,                                       !- Standards Template
  SecondarySchool,                        !- Standards Building Type
  Lobby;                                  !- Standards Space Type

OS:Rendering:Color,
  {494128f1-8653-4b67-8f15-abeede00e7b5}, !- Handle
  SecondarySchool Lobby,                  !- Name
  230,                                    !- Rendering Red Value
  157,                                    !- Rendering Green Value
  120;                                    !- Rendering Blue Value

OS:SpaceType,
  {10b580ba-e17e-4e60-9b06-481ee5e8d817}, !- Handle
  SecondarySchool Mechanical,             !- Name
  ,                                       !- Default Construction Set Name
  ,                                       !- Default Schedule Set Name
  {6710e1c6-0d12-4c8e-8a9f-d43276109433}, !- Group Rendering Name
  ,                                       !- Design Specification Outdoor Air Object Name
  ,                                       !- Standards Template
  SecondarySchool,                        !- Standards Building Type
  Mechanical;                             !- Standards Space Type

OS:Rendering:Color,
  {6710e1c6-0d12-4c8e-8a9f-d43276109433}, !- Handle
  SecondarySchool Mechanical,             !- Name
  41,                                     !- Rendering Red Value
  31,                                     !- Rendering Green Value
  169;                                    !- Rendering Blue Value

OS:SpaceType,
  {c957b965-833d-4f4a-96be-11cba290eebd}, !- Handle
  SecondarySchool Office,                 !- Name
  ,                                       !- Default Construction Set Name
  ,                                       !- Default Schedule Set Name
  {90edd8df-df13-4b83-ac5f-23f2ba8a876c}, !- Group Rendering Name
  ,                                       !- Design Specification Outdoor Air Object Name
  ,                                       !- Standards Template
  SecondarySchool,                        !- Standards Building Type
  Office;                                 !- Standards Space Type

OS:Rendering:Color,
  {90edd8df-df13-4b83-ac5f-23f2ba8a876c}, !- Handle
  SecondarySchool Office,                 !- Name
  120,                                    !- Rendering Red Value
  230,                                    !- Rendering Green Value
  199;                                    !- Rendering Blue Value

OS:SpaceType,
  {7dabc70f-48f8-49ab-b297-a6c54e9e9966}, !- Handle
  SecondarySchool Restroom,               !- Name
  ,                                       !- Default Construction Set Name
  ,                                       !- Default Schedule Set Name
  {06a7073b-b268-4f17-871a-8cafaf97f646}, !- Group Rendering Name
  ,                                       !- Design Specification Outdoor Air Object Name
  ,                                       !- Standards Template
  SecondarySchool,                        !- Standards Building Type
  Restroom;                               !- Standards Space Type

OS:Rendering:Color,
  {06a7073b-b268-4f17-871a-8cafaf97f646}, !- Handle
  SecondarySchool Restroom,               !- Name
  169,                                    !- Rendering Red Value
  169,                                    !- Rendering Green Value
  31;                                     !- Rendering Blue Value

OS:Building,
  {0e37bd0a-a516-4546-8ed3-a2e7480411fc}, !- Handle
  90.1-2004|SecondarySchool,              !- Name
  ,                                       !- Building Sector Type
  45,                                     !- North Axis {deg}
  ,                                       !- Nominal Floor to Floor Height {m}
  {eef61d50-e6e4-447f-a9db-1b5c4f8151a3}, !- Space Type Name
  ,                                       !- Default Construction Set Name
  ;                                       !- Default Schedule Set Name

OS:Site,
  {0f35cb46-b319-49a5-b0b1-d74037e89943}, !- Handle
  Site 1,                                 !- Name
  ,                                       !- Latitude {deg}
  ,                                       !- Longitude {deg}
  ,                                       !- Time Zone {hr}
  ,                                       !- Elevation {m}
  ;                                       !- Terrain

OS:BuildingStory,
  {5f5e6d22-f670-42f1-8c67-2a11cd633c5c}, !- Handle
  Story B1,                               !- Name
  -3.9624,                                !- Nominal Z Coordinate {m}
  3.9624,                                 !- Nominal Floor to Floor Height {m}
  ,                                       !- Default Construction Set Name
  ,                                       !- Default Schedule Set Name
  ;                                       !- Group Rendering Name

OS:Space,
  {e4f85386-4a7e-4e36-a26d-0209760e9157}, !- Handle
  West Perimeter Space - Story B1,        !- Name
  ,                                       !- Space Type Name
  ,                                       !- Default Construction Set Name
  ,                                       !- Default Schedule Set Name
  -0,                                     !- Direction of Relative North {deg}
  -39.3495107974674,                      !- X Origin {m}
  -13.1165035991558,                      !- Y Origin {m}
  -3.9624,                                !- Z Origin {m}
  {5f5e6d22-f670-42f1-8c67-2a11cd633c5c}, !- Building Story Name
  {0d4c88d9-def4-4973-bcbb-48830825e70c}; !- Thermal Zone Name

OS:Surface,
  {57a6c74d-d7ce-448c-a578-fd8c1b54a93d}, !- Handle
  Surface 1,                              !- Name
  Floor,                                  !- Surface Type
  ,                                       !- Construction Name
  {e4f85386-4a7e-4e36-a26d-0209760e9157}, !- Space Name
  Ground,                                 !- Outside Boundary Condition
  ,                                       !- Outside Boundary Condition Object
  NoSun,                                  !- Sun Exposure
  NoWind,                                 !- Wind Exposure
  ,                                       !- View Factor to Ground
  ,                                       !- Number of Vertices
  -4.9737991503207e-014, -1.4210854715202e-014, 0, !- X,Y,Z Vertex 1 {m}
  -4.9737991503207e-014, 26.2330071983116, 0, !- X,Y,Z Vertex 2 {m}
  4.57199999999995, 21.6610071983116, 0,  !- X,Y,Z Vertex 3 {m}
  4.57199999999995, 4.572, 0;             !- X,Y,Z Vertex 4 {m}

OS:Surface,
  {589ac1df-cde7-4fd8-b0c1-a3c8fe4c1bc2}, !- Handle
  Surface 2,                              !- Name
  Wall,                                   !- Surface Type
  ,                                       !- Construction Name
  {e4f85386-4a7e-4e36-a26d-0209760e9157}, !- Space Name
  Ground,                                 !- Outside Boundary Condition
  ,                                       !- Outside Boundary Condition Object
  NoSun,                                  !- Sun Exposure
  NoWind,                                 !- Wind Exposure
  ,                                       !- View Factor to Ground
  ,                                       !- Number of Vertices
  -4.9737991503207e-014, 26.2330071983116, 3.9624, !- X,Y,Z Vertex 1 {m}
  -4.9737991503207e-014, 26.2330071983116, 0, !- X,Y,Z Vertex 2 {m}
  -4.9737991503207e-014, -1.4210854715202e-014, 0, !- X,Y,Z Vertex 3 {m}
  -4.9737991503207e-014, -1.4210854715202e-014, 3.9624; !- X,Y,Z Vertex 4 {m}

OS:Surface,
  {c76f735e-435b-4ac8-aae4-001f6ec1062f}, !- Handle
  Surface 3,                              !- Name
  Wall,                                   !- Surface Type
  ,                                       !- Construction Name
  {e4f85386-4a7e-4e36-a26d-0209760e9157}, !- Space Name
  Surface,                                !- Outside Boundary Condition
  {21d55b4b-7cb5-4331-8d12-4f52118b6cf1}, !- Outside Boundary Condition Object
  NoSun,                                  !- Sun Exposure
  NoWind,                                 !- Wind Exposure
  ,                                       !- View Factor to Ground
  ,                                       !- Number of Vertices
  4.57199999999995, 21.6610071983116, 3.9624, !- X,Y,Z Vertex 1 {m}
  4.57199999999995, 21.6610071983116, 0,  !- X,Y,Z Vertex 2 {m}
  -4.9737991503207e-014, 26.2330071983116, 0, !- X,Y,Z Vertex 3 {m}
  -4.9737991503207e-014, 26.2330071983116, 3.9624; !- X,Y,Z Vertex 4 {m}

OS:Surface,
  {1d4eb71f-f82f-4575-894e-0fe649dd83ca}, !- Handle
  Surface 4,                              !- Name
  Wall,                                   !- Surface Type
  ,                                       !- Construction Name
  {e4f85386-4a7e-4e36-a26d-0209760e9157}, !- Space Name
  Surface,                                !- Outside Boundary Condition
  {21196f0b-3670-43d8-be2a-efd4db9cb015}, !- Outside Boundary Condition Object
  NoSun,                                  !- Sun Exposure
  NoWind,                                 !- Wind Exposure
  ,                                       !- View Factor to Ground
  ,                                       !- Number of Vertices
  4.57199999999995, 4.572, 3.9624,        !- X,Y,Z Vertex 1 {m}
  4.57199999999995, 4.572, 0,             !- X,Y,Z Vertex 2 {m}
  4.57199999999995, 21.6610071983116, 0,  !- X,Y,Z Vertex 3 {m}
  4.57199999999995, 21.6610071983116, 3.9624; !- X,Y,Z Vertex 4 {m}

OS:Surface,
  {adcb5686-4e45-448f-a838-7ae9b5c595cf}, !- Handle
  Surface 5,                              !- Name
  Wall,                                   !- Surface Type
  ,                                       !- Construction Name
  {e4f85386-4a7e-4e36-a26d-0209760e9157}, !- Space Name
  Surface,                                !- Outside Boundary Condition
  {701dfdff-147f-4dca-8bf5-6d646cc428b5}, !- Outside Boundary Condition Object
  NoSun,                                  !- Sun Exposure
  NoWind,                                 !- Wind Exposure
  ,                                       !- View Factor to Ground
  ,                                       !- Number of Vertices
  -4.9737991503207e-014, -1.4210854715202e-014, 3.9624, !- X,Y,Z Vertex 1 {m}
  -4.9737991503207e-014, -1.4210854715202e-014, 0, !- X,Y,Z Vertex 2 {m}
  4.57199999999995, 4.572, 0,             !- X,Y,Z Vertex 3 {m}
  4.57199999999995, 4.572, 3.9624;        !- X,Y,Z Vertex 4 {m}

OS:Surface,
  {6109d4a2-2836-4d28-afd7-a657342d6df9}, !- Handle
  Surface 6,                              !- Name
  RoofCeiling,                            !- Surface Type
  ,                                       !- Construction Name
  {e4f85386-4a7e-4e36-a26d-0209760e9157}, !- Space Name
  Surface,                                !- Outside Boundary Condition
  {e2ed3dfe-8476-4bce-9d22-98918b25a3b2}, !- Outside Boundary Condition Object
  NoSun,                                  !- Sun Exposure
  NoWind,                                 !- Wind Exposure
  ,                                       !- View Factor to Ground
  ,                                       !- Number of Vertices
  4.57199999999995, 4.572, 3.9624,        !- X,Y,Z Vertex 1 {m}
  4.57199999999995, 21.6610071983116, 3.9624, !- X,Y,Z Vertex 2 {m}
  -4.9737991503207e-014, 26.2330071983116, 3.9624, !- X,Y,Z Vertex 3 {m}
  -4.9737991503207e-014, -1.4210854715202e-014, 3.9624; !- X,Y,Z Vertex 4 {m}

OS:ThermalZone,
  {0d4c88d9-def4-4973-bcbb-48830825e70c}, !- Handle
  Zone West Perimeter Space - Story B1,   !- Name
  1,                                      !- Multiplier
  ,                                       !- Ceiling Height {m}
  ,                                       !- Volume {m3}
  ,                                       !- Floor Area {m2}
  ,                                       !- Zone Inside Convection Algorithm
  ,                                       !- Zone Outside Convection Algorithm
  ,                                       !- Zone Conditioning Equipment List Name
  {64db2eab-a7c9-484d-bbb6-9d907ec094c1}, !- Zone Air Inlet Port List
  {0dba74ac-a00b-417a-9a6b-fbcfa9a08fa2}, !- Zone Air Exhaust Port List
  {95bb2fd4-5722-4767-9715-27848044ae96}, !- Zone Air Node Name
  {040431be-8e9c-43c2-b2d9-8b40c58b66af}, !- Zone Return Air Port List
  ,                                       !- Primary Daylighting Control Name
  ,                                       !- Fraction of Zone Controlled by Primary Daylighting Control
  ,                                       !- Secondary Daylighting Control Name
  ,                                       !- Fraction of Zone Controlled by Secondary Daylighting Control
  ,                                       !- Illuminance Map Name
  ,                                       !- Group Rendering Name
  ,                                       !- Thermostat Name
  No;                                     !- Use Ideal Air Loads

OS:Node,
  {404a2389-3d6f-4c97-b2f3-14bd83de51b8}, !- Handle
  Node 1,                                 !- Name
  {95bb2fd4-5722-4767-9715-27848044ae96}, !- Inlet Port
  ;                                       !- Outlet Port

OS:Connection,
  {95bb2fd4-5722-4767-9715-27848044ae96}, !- Handle
  {f43038de-c05b-4853-81ff-7afe02d3dfb7}, !- Name
  {0d4c88d9-def4-4973-bcbb-48830825e70c}, !- Source Object
  11,                                     !- Outlet Port
  {404a2389-3d6f-4c97-b2f3-14bd83de51b8}, !- Target Object
  2;                                      !- Inlet Port

OS:PortList,
  {64db2eab-a7c9-484d-bbb6-9d907ec094c1}, !- Handle
  {18586443-1b50-4c00-8696-8bc62d540074}, !- Name
  {0d4c88d9-def4-4973-bcbb-48830825e70c}; !- HVAC Component

OS:PortList,
  {0dba74ac-a00b-417a-9a6b-fbcfa9a08fa2}, !- Handle
  {cc1452fb-6494-4c2c-a764-27470c7386ed}, !- Name
  {0d4c88d9-def4-4973-bcbb-48830825e70c}; !- HVAC Component

OS:PortList,
  {040431be-8e9c-43c2-b2d9-8b40c58b66af}, !- Handle
  {5cbb5aa6-1cd9-42b6-9b23-2ef846400c43}, !- Name
  {0d4c88d9-def4-4973-bcbb-48830825e70c}; !- HVAC Component

OS:Sizing:Zone,
  {e6b0301f-7dac-43a2-8a62-f0c932fe8101}, !- Handle
  {0d4c88d9-def4-4973-bcbb-48830825e70c}, !- Zone or ZoneList Name
  SupplyAirTemperature,                   !- Zone Cooling Design Supply Air Temperature Input Method
  14,                                     !- Zone Cooling Design Supply Air Temperature {C}
  11.11,                                  !- Zone Cooling Design Supply Air Temperature Difference {deltaC}
  SupplyAirTemperature,                   !- Zone Heating Design Supply Air Temperature Input Method
  40,                                     !- Zone Heating Design Supply Air Temperature {C}
  11.11,                                  !- Zone Heating Design Supply Air Temperature Difference {deltaC}
  0.0085,                                 !- Zone Cooling Design Supply Air Humidity Ratio {kg-H2O/kg-air}
  0.008,                                  !- Zone Heating Design Supply Air Humidity Ratio {kg-H2O/kg-air}
  ,                                       !- Zone Heating Sizing Factor
  ,                                       !- Zone Cooling Sizing Factor
  DesignDay,                              !- Cooling Design Air Flow Method
  ,                                       !- Cooling Design Air Flow Rate {m3/s}
  ,                                       !- Cooling Minimum Air Flow per Zone Floor Area {m3/s-m2}
  ,                                       !- Cooling Minimum Air Flow {m3/s}
  ,                                       !- Cooling Minimum Air Flow Fraction
  DesignDay,                              !- Heating Design Air Flow Method
  ,                                       !- Heating Design Air Flow Rate {m3/s}
  ,                                       !- Heating Maximum Air Flow per Zone Floor Area {m3/s-m2}
  ,                                       !- Heating Maximum Air Flow {m3/s}
  ,                                       !- Heating Maximum Air Flow Fraction
  ,                                       !- Design Zone Air Distribution Effectiveness in Cooling Mode
  ,                                       !- Design Zone Air Distribution Effectiveness in Heating Mode
  No,                                     !- Account for Dedicated Outdoor Air System
  NeutralSupplyAir,                       !- Dedicated Outdoor Air System Control Strategy
  autosize,                               !- Dedicated Outdoor Air Low Setpoint Temperature for Design {C}
  autosize;                               !- Dedicated Outdoor Air High Setpoint Temperature for Design {C}

OS:ZoneHVAC:EquipmentList,
  {e5d1e9a2-9b78-4aa1-9d13-eb513528b36e}, !- Handle
  Zone HVAC Equipment List 1,             !- Name
  {0d4c88d9-def4-4973-bcbb-48830825e70c}; !- Thermal Zone

OS:Space,
  {1e341f17-f5ac-4b29-867a-bcb41d77a7bf}, !- Handle
  North Perimeter Space - Story B1,       !- Name
  ,                                       !- Space Type Name
  ,                                       !- Default Construction Set Name
  ,                                       !- Default Schedule Set Name
  -0,                                     !- Direction of Relative North {deg}
  -39.3495107974674,                      !- X Origin {m}
  13.1165035991558,                       !- Y Origin {m}
  -3.9624,                                !- Z Origin {m}
  {5f5e6d22-f670-42f1-8c67-2a11cd633c5c}, !- Building Story Name
  {b7a616d2-9d9e-4250-8d64-6c767956780d}; !- Thermal Zone Name

OS:Surface,
  {333041dc-d807-481d-9a7c-a7ee4cc7b8b2}, !- Handle
  Surface 7,                              !- Name
  Floor,                                  !- Surface Type
  ,                                       !- Construction Name
  {1e341f17-f5ac-4b29-867a-bcb41d77a7bf}, !- Space Name
  Ground,                                 !- Outside Boundary Condition
  ,                                       !- Outside Boundary Condition Object
  NoSun,                                  !- Sun Exposure
  NoWind,                                 !- Wind Exposure
  ,                                       !- View Factor to Ground
  ,                                       !- Number of Vertices
  -4.9737991503207e-014, 1.4210854715202e-014, 0, !- X,Y,Z Vertex 1 {m}
  78.6990215949347, 1.4210854715202e-014, 0, !- X,Y,Z Vertex 2 {m}
  74.1270215949347, -4.572, 0,            !- X,Y,Z Vertex 3 {m}
  4.57199999999995, -4.572, 0;            !- X,Y,Z Vertex 4 {m}

OS:Surface,
  {06aac8f1-6794-4333-82ca-bd670a156d9b}, !- Handle
  Surface 8,                              !- Name
  Wall,                                   !- Surface Type
  ,                                       !- Construction Name
  {1e341f17-f5ac-4b29-867a-bcb41d77a7bf}, !- Space Name
  Ground,                                 !- Outside Boundary Condition
  ,                                       !- Outside Boundary Condition Object
  NoSun,                                  !- Sun Exposure
  NoWind,                                 !- Wind Exposure
  ,                                       !- View Factor to Ground
  ,                                       !- Number of Vertices
  78.6990215949347, 1.4210854715202e-014, 3.9624, !- X,Y,Z Vertex 1 {m}
  78.6990215949347, 1.4210854715202e-014, 0, !- X,Y,Z Vertex 2 {m}
  -4.9737991503207e-014, 1.4210854715202e-014, 0, !- X,Y,Z Vertex 3 {m}
  -4.9737991503207e-014, 1.4210854715202e-014, 3.9624; !- X,Y,Z Vertex 4 {m}

OS:Surface,
  {426c6d26-0c46-4f07-8429-3321ed5f0b59}, !- Handle
  Surface 9,                              !- Name
  Wall,                                   !- Surface Type
  ,                                       !- Construction Name
  {1e341f17-f5ac-4b29-867a-bcb41d77a7bf}, !- Space Name
  Surface,                                !- Outside Boundary Condition
  {73c9fe27-1c68-4f61-aa31-9af07ea83c55}, !- Outside Boundary Condition Object
  NoSun,                                  !- Sun Exposure
  NoWind,                                 !- Wind Exposure
  ,                                       !- View Factor to Ground
  ,                                       !- Number of Vertices
  74.1270215949347, -4.572, 3.9624,       !- X,Y,Z Vertex 1 {m}
  74.1270215949347, -4.572, 0,            !- X,Y,Z Vertex 2 {m}
  78.6990215949347, 1.4210854715202e-014, 0, !- X,Y,Z Vertex 3 {m}
  78.6990215949347, 1.4210854715202e-014, 3.9624; !- X,Y,Z Vertex 4 {m}

OS:Surface,
  {379440f4-89db-4f92-a74c-d1ff288accfb}, !- Handle
  Surface 10,                             !- Name
  Wall,                                   !- Surface Type
  ,                                       !- Construction Name
  {1e341f17-f5ac-4b29-867a-bcb41d77a7bf}, !- Space Name
  Surface,                                !- Outside Boundary Condition
  {36a19fe4-f0da-4724-8bc6-a22439f03338}, !- Outside Boundary Condition Object
  NoSun,                                  !- Sun Exposure
  NoWind,                                 !- Wind Exposure
  ,                                       !- View Factor to Ground
  ,                                       !- Number of Vertices
  4.57199999999995, -4.572, 3.9624,       !- X,Y,Z Vertex 1 {m}
  4.57199999999995, -4.572, 0,            !- X,Y,Z Vertex 2 {m}
  74.1270215949347, -4.572, 0,            !- X,Y,Z Vertex 3 {m}
  74.1270215949347, -4.572, 3.9624;       !- X,Y,Z Vertex 4 {m}

OS:Surface,
  {21d55b4b-7cb5-4331-8d12-4f52118b6cf1}, !- Handle
  Surface 11,                             !- Name
  Wall,                                   !- Surface Type
  ,                                       !- Construction Name
  {1e341f17-f5ac-4b29-867a-bcb41d77a7bf}, !- Space Name
  Surface,                                !- Outside Boundary Condition
  {c76f735e-435b-4ac8-aae4-001f6ec1062f}, !- Outside Boundary Condition Object
  NoSun,                                  !- Sun Exposure
  NoWind,                                 !- Wind Exposure
  ,                                       !- View Factor to Ground
  ,                                       !- Number of Vertices
  -4.9737991503207e-014, 1.4210854715202e-014, 3.9624, !- X,Y,Z Vertex 1 {m}
  -4.9737991503207e-014, 1.4210854715202e-014, 0, !- X,Y,Z Vertex 2 {m}
  4.57199999999995, -4.572, 0,            !- X,Y,Z Vertex 3 {m}
  4.57199999999995, -4.572, 3.9624;       !- X,Y,Z Vertex 4 {m}

OS:Surface,
  {fd271e27-b82e-420d-8366-c63cc4a12210}, !- Handle
  Surface 12,                             !- Name
  RoofCeiling,                            !- Surface Type
  ,                                       !- Construction Name
  {1e341f17-f5ac-4b29-867a-bcb41d77a7bf}, !- Space Name
  Surface,                                !- Outside Boundary Condition
  {dcfec29a-ebf2-4d00-b411-fb6fd5ddec43}, !- Outside Boundary Condition Object
  NoSun,                                  !- Sun Exposure
  NoWind,                                 !- Wind Exposure
  ,                                       !- View Factor to Ground
  ,                                       !- Number of Vertices
  4.57199999999995, -4.572, 3.9624,       !- X,Y,Z Vertex 1 {m}