
OS:Version,
  {c7ed2b40-b86b-4ec1-a15d-0c5953b0189b}, !- Handle
  2.7.2;                                  !- Version Identifier

OS:SpaceType,
  {0bd75595-8ffa-4cc8-9f23-ae4b21968757}, !- Handle
  SecondarySchool Auditorium,             !- Name
  ,                                       !- Default Construction Set Name
  ,                                       !- Default Schedule Set Name
  {64bad869-dbf6-4b60-a45c-32ddfc022b17}, !- Group Rendering Name
  ,                                       !- Design Specification Outdoor Air Object Name
  ,                                       !- Standards Template
  SecondarySchool,                        !- Standards Building Type
  Auditorium;                             !- Standards Space Type

OS:Rendering:Color,
  {64bad869-dbf6-4b60-a45c-32ddfc022b17}, !- Handle
  SecondarySchool Auditorium,             !- Name
  230,                                    !- Rendering Red Value
  196,                                    !- Rendering Green Value
  120;                                    !- Rendering Blue Value

OS:SpaceType,
  {28f18262-afbb-4c18-90ea-4a3997e343b1}, !- Handle
  SecondarySchool Cafeteria,              !- Name
  ,                                       !- Default Construction Set Name
  ,                                       !- Default Schedule Set Name
  {410eba44-b938-4d5a-b7c8-a6f42da3c187}, !- Group Rendering Name
  ,                                       !- Design Specification Outdoor Air Object Name
  ,                                       !- Standards Template
  SecondarySchool,                        !- Standards Building Type
  Cafeteria;                              !- Standards Space Type

OS:Rendering:Color,
  {410eba44-b938-4d5a-b7c8-a6f42da3c187}, !- Handle
  SecondarySchool Cafeteria,              !- Name
  31,                                     !- Rendering Red Value
  169,                                    !- Rendering Green Value
  34;                                     !- Rendering Blue Value

OS:SpaceType,
  {f199273b-9aee-4f8f-82b2-95627ca29b30}, !- Handle
  SecondarySchool Classroom,              !- Name
  ,                                       !- Default Construction Set Name
  ,                                       !- Default Schedule Set Name
  {f913513e-ac4f-4259-8772-c379452eb1a9}, !- Group Rendering Name
  ,                                       !- Design Specification Outdoor Air Object Name
  ,                                       !- Standards Template
  SecondarySchool,                        !- Standards Building Type
  Classroom;                              !- Standards Space Type

OS:Rendering:Color,
  {f913513e-ac4f-4259-8772-c379452eb1a9}, !- Handle
  SecondarySchool Classroom,              !- Name
  120,                                    !- Rendering Red Value
  230,                                    !- Rendering Green Value
  199;                                    !- Rendering Blue Value

OS:SpaceType,
  {1005c5b9-3bea-437a-aa71-9dc1cd6ce91e}, !- Handle
  SecondarySchool Corridor,               !- Name
  ,                                       !- Default Construction Set Name
  ,                                       !- Default Schedule Set Name
  {3c54a310-b356-45bd-8d19-9bf40240f41e}, !- Group Rendering Name
  ,                                       !- Design Specification Outdoor Air Object Name
  ,                                       !- Standards Template
  SecondarySchool,                        !- Standards Building Type
  Corridor;                               !- Standards Space Type

OS:Rendering:Color,
  {3c54a310-b356-45bd-8d19-9bf40240f41e}, !- Handle
  SecondarySchool Corridor,               !- Name
  169,                                    !- Rendering Red Value
  31,                                     !- Rendering Green Value
  31;                                     !- Rendering Blue Value

OS:SpaceType,
  {c1bb2a45-c35f-4c76-aa94-6a5cbff0933e}, !- Handle
  SecondarySchool Gym,                    !- Name
  ,                                       !- Default Construction Set Name
  ,                                       !- Default Schedule Set Name
  {829ac549-c754-427b-8e19-893172363c1d}, !- Group Rendering Name
  ,                                       !- Design Specification Outdoor Air Object Name
  ,                                       !- Standards Template
  SecondarySchool,                        !- Standards Building Type
  Gym;                                    !- Standards Space Type

OS:Rendering:Color,
  {829ac549-c754-427b-8e19-893172363c1d}, !- Handle
  SecondarySchool Gym,                    !- Name
  154,                                    !- Rendering Red Value
  230,                                    !- Rendering Green Value
  120;                                    !- Rendering Blue Value

OS:SpaceType,
  {47954eac-6539-499f-8e7a-724d4ad2dd89}, !- Handle
  SecondarySchool Kitchen,                !- Name
  ,                                       !- Default Construction Set Name
  ,                                       !- Default Schedule Set Name
  {97ef5328-6d14-454e-a020-c175f3bfaea9}, !- Group Rendering Name
  ,                                       !- Design Specification Outdoor Air Object Name
  ,                                       !- Standards Template
  SecondarySchool,                        !- Standards Building Type
  Kitchen;                                !- Standards Space Type

OS:Rendering:Color,
  {97ef5328-6d14-454e-a020-c175f3bfaea9}, !- Handle
  SecondarySchool Kitchen,                !- Name
  78,                                     !- Rendering Red Value
  222,                                    !- Rendering Green Value
  133;                                    !- Rendering Blue Value

OS:SpaceType,
  {8231f64b-d482-4a83-98d1-a8dbed14797c}, !- Handle
  SecondarySchool Library,                !- Name
  ,                                       !- Default Construction Set Name
  ,                                       !- Default Schedule Set Name
  {38a37b02-f539-41ba-8883-9cd9a56055a7}, !- Group Rendering Name
  ,                                       !- Design Specification Outdoor Air Object Name
  ,                                       !- Standards Template
  SecondarySchool,                        !- Standards Building Type
  Library;                                !- Standards Space Type

OS:Rendering:Color,
  {38a37b02-f539-41ba-8883-9cd9a56055a7}, !- Handle
  SecondarySchool Library,                !- Name
  230,                                    !- Rendering Red Value
  196,                                    !- Rendering Green Value
  120;                                    !- Rendering Blue Value

OS:SpaceType,
  {f6ee4d5e-9d7c-43d4-8833-9f5091ee58f2}, !- Handle
  SecondarySchool Lobby,                  !- Name
  ,                                       !- Default Construction Set Name
  ,                                       !- Default Schedule Set Name
  {30121cc1-58ca-472c-b537-2a07447ddd64}, !- Group Rendering Name
  ,                                       !- Design Specification Outdoor Air Object Name
  ,                                       !- Standards Template
  SecondarySchool,                        !- Standards Building Type
  Lobby;                                  !- Standards Space Type

OS:Rendering:Color,
  {30121cc1-58ca-472c-b537-2a07447ddd64}, !- Handle
  SecondarySchool Lobby,                  !- Name
  230,                                    !- Rendering Red Value
  157,                                    !- Rendering Green Value
  120;                                    !- Rendering Blue Value

OS:SpaceType,
  {35addcfc-475b-4bc2-846d-db59f88d33aa}, !- Handle
  SecondarySchool Mechanical,             !- Name
  ,                                       !- Default Construction Set Name
  ,                                       !- Default Schedule Set Name
  {96f84735-c0f1-41a6-b75e-7595b28c7d6e}, !- Group Rendering Name
  ,                                       !- Design Specification Outdoor Air Object Name
  ,                                       !- Standards Template
  SecondarySchool,                        !- Standards Building Type
  Mechanical;                             !- Standards Space Type

OS:Rendering:Color,
  {96f84735-c0f1-41a6-b75e-7595b28c7d6e}, !- Handle
  SecondarySchool Mechanical,             !- Name
  41,                                     !- Rendering Red Value
  31,                                     !- Rendering Green Value
  169;                                    !- Rendering Blue Value

OS:SpaceType,
  {d55c5622-8928-4964-9202-6d1f5a2d15e3}, !- Handle
  SecondarySchool Office,                 !- Name
  ,                                       !- Default Construction Set Name
  ,                                       !- Default Schedule Set Name
  {e0a86442-5410-4e93-8f2b-60b6bdeb07b5}, !- Group Rendering Name
  ,                                       !- Design Specification Outdoor Air Object Name
  ,                                       !- Standards Template
  SecondarySchool,                        !- Standards Building Type
  Office;                                 !- Standards Space Type

OS:Rendering:Color,
  {e0a86442-5410-4e93-8f2b-60b6bdeb07b5}, !- Handle
  SecondarySchool Office,                 !- Name
  120,                                    !- Rendering Red Value
  230,                                    !- Rendering Green Value
  199;                                    !- Rendering Blue Value

OS:SpaceType,
  {776eac0b-b5c7-4353-abeb-5296084ee660}, !- Handle
  SecondarySchool Restroom,               !- Name
  ,                                       !- Default Construction Set Name
  ,                                       !- Default Schedule Set Name
  {bb781254-12d8-464c-82f8-eea8c32bcc26}, !- Group Rendering Name
  ,                                       !- Design Specification Outdoor Air Object Name
  ,                                       !- Standards Template
  SecondarySchool,                        !- Standards Building Type
  Restroom;                               !- Standards Space Type

OS:Rendering:Color,
  {bb781254-12d8-464c-82f8-eea8c32bcc26}, !- Handle
  SecondarySchool Restroom,               !- Name
  169,                                    !- Rendering Red Value
  169,                                    !- Rendering Green Value
  31;                                     !- Rendering Blue Value

OS:Building,
  {ba32a792-9cf6-4e10-ab89-2ed849f32fe5}, !- Handle
  90.1-2004|SecondarySchool,              !- Name
  ,                                       !- Building Sector Type
  45,                                     !- North Axis {deg}
  ,                                       !- Nominal Floor to Floor Height {m}
  {f199273b-9aee-4f8f-82b2-95627ca29b30}, !- Space Type Name
  ,                                       !- Default Construction Set Name
  ;                                       !- Default Schedule Set Name

OS:Site,
  {b7e48330-c1ca-417f-bff0-c4c5d7190b98}, !- Handle
  Site 1,                                 !- Name
  ,                                       !- Latitude {deg}
  ,                                       !- Longitude {deg}
  ,                                       !- Time Zone {hr}
  ,                                       !- Elevation {m}
  ;                                       !- Terrain

OS:BuildingStory,
  {7610a31a-35d5-4cc7-ad4f-1e794166a1f2}, !- Handle
  Story B1,                               !- Name
  -3.9624,                                !- Nominal Z Coordinate {m}
  3.9624,                                 !- Nominal Floor to Floor Height {m}
  ,                                       !- Default Construction Set Name
  ,                                       !- Default Schedule Set Name
  ;                                       !- Group Rendering Name

OS:Space,
  {0ffac70c-b2df-4e14-a91a-fd4c3b71c88b}, !- Handle
  West Perimeter Space - Story B1,        !- Name
  ,                                       !- Space Type Name
  ,                                       !- Default Construction Set Name
  ,                                       !- Default Schedule Set Name
  -0,                                     !- Direction of Relative North {deg}
  -39.3495107974674,                      !- X Origin {m}
  -13.1165035991558,                      !- Y Origin {m}
  -3.9624,                                !- Z Origin {m}
  {7610a31a-35d5-4cc7-ad4f-1e794166a1f2}, !- Building Story Name
  {da62abaa-46f5-47cf-b084-d5738d2bece8}; !- Thermal Zone Name

OS:Surface,
  {81f1c41a-b9f3-4ae4-a443-acaa12606d30}, !- Handle
  Surface 1,                              !- Name
  Floor,                                  !- Surface Type
  ,                                       !- Construction Name
  {0ffac70c-b2df-4e14-a91a-fd4c3b71c88b}, !- Space Name
  Ground,                                 !- Outside Boundary Condition
  ,                                       !- Outside Boundary Condition Object
  NoSun,                                  !- Sun Exposure
  NoWind,                                 !- Wind Exposure
  ,                                       !- View Factor to Ground
  ,                                       !- Number of Vertices
  -4.9737991503207e-014, -1.4210854715202e-014, 0, !- X,Y,Z Vertex 1 {m}
  -4.9737991503207e-014, 26.2330071983116, 0, !- X,Y,Z Vertex 2 {m}
  4.57199999999995, 21.6610071983116, 0,  !- X,Y,Z Vertex 3 {m}
  4.57199999999995, 4.572, 0;             !- X,Y,Z Vertex 4 {m}

OS:Surface,
  {ec08bfc1-561f-4632-8e8c-23d95a1180a5}, !- Handle
  Surface 2,                              !- Name
  Wall,                                   !- Surface Type
  ,                                       !- Construction Name
  {0ffac70c-b2df-4e14-a91a-fd4c3b71c88b}, !- Space Name
  Ground,                                 !- Outside Boundary Condition
  ,                                       !- Outside Boundary Condition Object
  NoSun,                                  !- Sun Exposure
  NoWind,                                 !- Wind Exposure
  ,                                       !- View Factor to Ground
  ,                                       !- Number of Vertices
  -4.9737991503207e-014, 26.2330071983116, 3.9624, !- X,Y,Z Vertex 1 {m}
  -4.9737991503207e-014, 26.2330071983116, 0, !- X,Y,Z Vertex 2 {m}
  -4.9737991503207e-014, -1.4210854715202e-014, 0, !- X,Y,Z Vertex 3 {m}
  -4.9737991503207e-014, -1.4210854715202e-014, 3.9624; !- X,Y,Z Vertex 4 {m}

OS:Surface,
  {34150657-4f03-4254-9b7b-32b5536b2de9}, !- Handle
  Surface 3,                              !- Name
  Wall,                                   !- Surface Type
  ,                                       !- Construction Name
  {0ffac70c-b2df-4e14-a91a-fd4c3b71c88b}, !- Space Name
  Surface,                                !- Outside Boundary Condition
  {e9664e02-f0d7-4066-89ee-80e4f261445b}, !- Outside Boundary Condition Object
  NoSun,                                  !- Sun Exposure
  NoWind,                                 !- Wind Exposure
  ,                                       !- View Factor to Ground
  ,                                       !- Number of Vertices
  4.57199999999995, 21.6610071983116, 3.9624, !- X,Y,Z Vertex 1 {m}
  4.57199999999995, 21.6610071983116, 0,  !- X,Y,Z Vertex 2 {m}
  -4.9737991503207e-014, 26.2330071983116, 0, !- X,Y,Z Vertex 3 {m}
  -4.9737991503207e-014, 26.2330071983116, 3.9624; !- X,Y,Z Vertex 4 {m}

OS:Surface,
  {cd0ef5b9-e662-4a82-bc22-754e2c39b1d7}, !- Handle
  Surface 4,                              !- Name
  Wall,                                   !- Surface Type
  ,                                       !- Construction Name
  {0ffac70c-b2df-4e14-a91a-fd4c3b71c88b}, !- Space Name
  Surface,                                !- Outside Boundary Condition
  {3e8a69c8-13c0-4862-86ea-a7fa1f465fb7}, !- Outside Boundary Condition Object
  NoSun,                                  !- Sun Exposure
  NoWind,                                 !- Wind Exposure
  ,                                       !- View Factor to Ground
  ,                                       !- Number of Vertices
  4.57199999999995, 4.572, 3.9624,        !- X,Y,Z Vertex 1 {m}
  4.57199999999995, 4.572, 0,             !- X,Y,Z Vertex 2 {m}
  4.57199999999995, 21.6610071983116, 0,  !- X,Y,Z Vertex 3 {m}
  4.57199999999995, 21.6610071983116, 3.9624; !- X,Y,Z Vertex 4 {m}

OS:Surface,
  {c0d983c6-7089-4f59-981b-eb98078332a4}, !- Handle
  Surface 5,                              !- Name
  Wall,                                   !- Surface Type
  ,                                       !- Construction Name
  {0ffac70c-b2df-4e14-a91a-fd4c3b71c88b}, !- Space Name
  Surface,                                !- Outside Boundary Condition
  {73b88656-3f59-4aed-9f83-a3752d7ef542}, !- Outside Boundary Condition Object
  NoSun,                                  !- Sun Exposure
  NoWind,                                 !- Wind Exposure
  ,                                       !- View Factor to Ground
  ,                                       !- Number of Vertices
  -4.9737991503207e-014, -1.4210854715202e-014, 3.9624, !- X,Y,Z Vertex 1 {m}
  -4.9737991503207e-014, -1.4210854715202e-014, 0, !- X,Y,Z Vertex 2 {m}
  4.57199999999995, 4.572, 0,             !- X,Y,Z Vertex 3 {m}
  4.57199999999995, 4.572, 3.9624;        !- X,Y,Z Vertex 4 {m}

OS:Surface,
  {f7a738c6-3800-4cc6-90b0-3793c9e0645e}, !- Handle
  Surface 6,                              !- Name
  RoofCeiling,                            !- Surface Type
  ,                                       !- Construction Name
  {0ffac70c-b2df-4e14-a91a-fd4c3b71c88b}, !- Space Name
  Surface,                                !- Outside Boundary Condition
  {35ca0b17-88c0-4016-9f95-6ba2a2b5ca33}, !- Outside Boundary Condition Object
  NoSun,                                  !- Sun Exposure
  NoWind,                                 !- Wind Exposure
  ,                                       !- View Factor to Ground
  ,                                       !- Number of Vertices
  4.57199999999995, 4.572, 3.9624,        !- X,Y,Z Vertex 1 {m}
  4.57199999999995, 21.6610071983116, 3.9624, !- X,Y,Z Vertex 2 {m}
  -4.9737991503207e-014, 26.2330071983116, 3.9624, !- X,Y,Z Vertex 3 {m}
  -4.9737991503207e-014, -1.4210854715202e-014, 3.9624; !- X,Y,Z Vertex 4 {m}

OS:ThermalZone,
  {da62abaa-46f5-47cf-b084-d5738d2bece8}, !- Handle
  Zone West Perimeter Space - Story B1,   !- Name
  1,                                      !- Multiplier
  ,                                       !- Ceiling Height {m}
  ,                                       !- Volume {m3}
  ,                                       !- Floor Area {m2}
  ,                                       !- Zone Inside Convection Algorithm
  ,                                       !- Zone Outside Convection Algorithm
  ,                                       !- Zone Conditioning Equipment List Name
  {2c78cfa0-95e6-4275-b70f-71ca688a9f06}, !- Zone Air Inlet Port List
  {29e23b80-df1c-4e2c-bf60-4fb82c836e69}, !- Zone Air Exhaust Port List
  {1899725d-5908-47c3-b9a2-7f38a5a78217}, !- Zone Air Node Name
  {9a3b244b-95b7-44f3-bd72-e54fe024fd90}, !- Zone Return Air Port List
  ,                                       !- Primary Daylighting Control Name
  ,                                       !- Fraction of Zone Controlled by Primary Daylighting Control
  ,                                       !- Secondary Daylighting Control Name
  ,                                       !- Fraction of Zone Controlled by Secondary Daylighting Control
  ,                                       !- Illuminance Map Name
  ,                                       !- Group Rendering Name
  ,                                       !- Thermostat Name
  No;                                     !- Use Ideal Air Loads

OS:Node,
  {35bd4a33-6cf0-405d-9638-c939b01e26d6}, !- Handle
  Node 1,                                 !- Name
  {1899725d-5908-47c3-b9a2-7f38a5a78217}, !- Inlet Port
  ;                                       !- Outlet Port

OS:Connection,
  {1899725d-5908-47c3-b9a2-7f38a5a78217}, !- Handle
  {14de2c5d-fd58-4fc9-8652-d863dacc741f}, !- Name
  {da62abaa-46f5-47cf-b084-d5738d2bece8}, !- Source Object
  11,                                     !- Outlet Port
  {35bd4a33-6cf0-405d-9638-c939b01e26d6}, !- Target Object
  2;                                      !- Inlet Port

OS:PortList,
  {2c78cfa0-95e6-4275-b70f-71ca688a9f06}, !- Handle
  {0d1fd30d-2060-434d-81f0-b45e12ffe9f1}, !- Name
  {da62abaa-46f5-47cf-b084-d5738d2bece8}; !- HVAC Component

OS:PortList,
  {29e23b80-df1c-4e2c-bf60-4fb82c836e69}, !- Handle
  {d1987d48-b717-4d4e-94b7-e28ee3753d8a}, !- Name
  {da62abaa-46f5-47cf-b084-d5738d2bece8}; !- HVAC Component

OS:PortList,
  {9a3b244b-95b7-44f3-bd72-e54fe024fd90}, !- Handle
  {9a9c6bdf-7529-4bf6-a961-a7163b8c52b1}, !- Name
  {da62abaa-46f5-47cf-b084-d5738d2bece8}; !- HVAC Component

OS:Sizing:Zone,
  {033b7afb-1e38-4a47-a56d-db987fcb8a88}, !- Handle
  {da62abaa-46f5-47cf-b084-d5738d2bece8}, !- Zone or ZoneList Name
  SupplyAirTemperature,                   !- Zone Cooling Design Supply Air Temperature Input Method
  14,                                     !- Zone Cooling Design Supply Air Temperature {C}
  11.11,                                  !- Zone Cooling Design Supply Air Temperature Difference {deltaC}
  SupplyAirTemperature,                   !- Zone Heating Design Supply Air Temperature Input Method
  40,                                     !- Zone Heating Design Supply Air Temperature {C}
  11.11,                                  !- Zone Heating Design Supply Air Temperature Difference {deltaC}
  0.0085,                                 !- Zone Cooling Design Supply Air Humidity Ratio {kg-H2O/kg-air}
  0.008,                                  !- Zone Heating Design Supply Air Humidity Ratio {kg-H2O/kg-air}
  ,                                       !- Zone Heating Sizing Factor
  ,                                       !- Zone Cooling Sizing Factor
  DesignDay,                              !- Cooling Design Air Flow Method
  ,                                       !- Cooling Design Air Flow Rate {m3/s}
  ,                                       !- Cooling Minimum Air Flow per Zone Floor Area {m3/s-m2}
  ,                                       !- Cooling Minimum Air Flow {m3/s}
  ,                                       !- Cooling Minimum Air Flow Fraction
  DesignDay,                              !- Heating Design Air Flow Method
  ,                                       !- Heating Design Air Flow Rate {m3/s}
  ,                                       !- Heating Maximum Air Flow per Zone Floor Area {m3/s-m2}
  ,                                       !- Heating Maximum Air Flow {m3/s}
  ,                                       !- Heating Maximum Air Flow Fraction
  ,                                       !- Design Zone Air Distribution Effectiveness in Cooling Mode
  ,                                       !- Design Zone Air Distribution Effectiveness in Heating Mode
  No,                                     !- Account for Dedicated Outdoor Air System
  NeutralSupplyAir,                       !- Dedicated Outdoor Air System Control Strategy
  autosize,                               !- Dedicated Outdoor Air Low Setpoint Temperature for Design {C}
  autosize;                               !- Dedicated Outdoor Air High Setpoint Temperature for Design {C}

OS:ZoneHVAC:EquipmentList,
  {9a713870-509d-4794-99ab-564fd9c255c3}, !- Handle
  Zone HVAC Equipment List 1,             !- Name
  {da62abaa-46f5-47cf-b084-d5738d2bece8}; !- Thermal Zone

OS:Space,
  {84d3fc08-c4e2-415a-9a9f-d72c185e203e}, !- Handle
  North Perimeter Space - Story B1,       !- Name
  ,                                       !- Space Type Name
  ,                                       !- Default Construction Set Name
  ,                                       !- Default Schedule Set Name
  -0,                                     !- Direction of Relative North {deg}
  -39.3495107974674,                      !- X Origin {m}
  13.1165035991558,                       !- Y Origin {m}
  -3.9624,                                !- Z Origin {m}
  {7610a31a-35d5-4cc7-ad4f-1e794166a1f2}, !- Building Story Name
  {2812971b-61e5-458d-b6f0-db5df5ef28f3}; !- Thermal Zone Name

OS:Surface,
  {e07fbb67-71b6-4e2e-9470-b55763654a97}, !- Handle
  Surface 7,                              !- Name
  Floor,                                  !- Surface Type
  ,                                       !- Construction Name
  {84d3fc08-c4e2-415a-9a9f-d72c185e203e}, !- Space Name
  Ground,                                 !- Outside Boundary Condition
  ,                                       !- Outside Boundary Condition Object
  NoSun,                                  !- Sun Exposure
  NoWind,                                 !- Wind Exposure
  ,                                       !- View Factor to Ground
  ,                                       !- Number of Vertices
  -4.9737991503207e-014, 1.4210854715202e-014, 0, !- X,Y,Z Vertex 1 {m}
  78.6990215949347, 1.4210854715202e-014, 0, !- X,Y,Z Vertex 2 {m}
  74.1270215949347, -4.572, 0,            !- X,Y,Z Vertex 3 {m}
  4.57199999999995, -4.572, 0;            !- X,Y,Z Vertex 4 {m}

OS:Surface,
  {2f68e5da-b326-4d76-8573-3c2a4ac82038}, !- Handle
  Surface 8,                              !- Name
  Wall,                                   !- Surface Type
  ,                                       !- Construction Name
  {84d3fc08-c4e2-415a-9a9f-d72c185e203e}, !- Space Name
  Ground,                                 !- Outside Boundary Condition
  ,                                       !- Outside Boundary Condition Object
  NoSun,                                  !- Sun Exposure
  NoWind,                                 !- Wind Exposure
  ,                                       !- View Factor to Ground
  ,                                       !- Number of Vertices
  78.6990215949347, 1.4210854715202e-014, 3.9624, !- X,Y,Z Vertex 1 {m}
  78.6990215949347, 1.4210854715202e-014, 0, !- X,Y,Z Vertex 2 {m}
  -4.9737991503207e-014, 1.4210854715202e-014, 0, !- X,Y,Z Vertex 3 {m}
  -4.9737991503207e-014, 1.4210854715202e-014, 3.9624; !- X,Y,Z Vertex 4 {m}

OS:Surface,
  {ab04e82d-433c-46cb-9311-5cd2b4d5cc89}, !- Handle
  Surface 9,                              !- Name
  Wall,                                   !- Surface Type
  ,                                       !- Construction Name
  {84d3fc08-c4e2-415a-9a9f-d72c185e203e}, !- Space Name
  Surface,                                !- Outside Boundary Condition
  {6a7f7c7d-83fd-4167-9904-09748e018fee}, !- Outside Boundary Condition Object
  NoSun,                                  !- Sun Exposure
  NoWind,                                 !- Wind Exposure
  ,                                       !- View Factor to Ground
  ,                                       !- Number of Vertices
  74.1270215949347, -4.572, 3.9624,       !- X,Y,Z Vertex 1 {m}
  74.1270215949347, -4.572, 0,            !- X,Y,Z Vertex 2 {m}
  78.6990215949347, 1.4210854715202e-014, 0, !- X,Y,Z Vertex 3 {m}
  78.6990215949347, 1.4210854715202e-014, 3.9624; !- X,Y,Z Vertex 4 {m}

OS:Surface,
  {d249d5a9-b1a3-4b13-804b-3cefb8da4e52}, !- Handle
  Surface 10,                             !- Name
  Wall,                                   !- Surface Type
  ,                                       !- Construction Name
  {84d3fc08-c4e2-415a-9a9f-d72c185e203e}, !- Space Name
  Surface,                                !- Outside Boundary Condition
  {7e4f8b76-3adb-44fa-8fd3-5076eeb996da}, !- Outside Boundary Condition Object
  NoSun,                                  !- Sun Exposure
  NoWind,                                 !- Wind Exposure
  ,                                       !- View Factor to Ground
  ,                                       !- Number of Vertices
  4.57199999999995, -4.572, 3.9624,       !- X,Y,Z Vertex 1 {m}
  4.57199999999995, -4.572, 0,            !- X,Y,Z Vertex 2 {m}
  74.1270215949347, -4.572, 0,            !- X,Y,Z Vertex 3 {m}
  74.1270215949347, -4.572, 3.9624;       !- X,Y,Z Vertex 4 {m}

OS:Surface,
  {e9664e02-f0d7-4066-89ee-80e4f261445b}, !- Handle
  Surface 11,                             !- Name
  Wall,                                   !- Surface Type
  ,                                       !- Construction Name
  {84d3fc08-c4e2-415a-9a9f-d72c185e203e}, !- Space Name
  Surface,                                !- Outside Boundary Condition
  {34150657-4f03-4254-9b7b-32b5536b2de9}, !- Outside Boundary Condition Object
  NoSun,                                  !- Sun Exposure
  NoWind,                                 !- Wind Exposure
  ,                                       !- View Factor to Ground
  ,                                       !- Number of Vertices
  -4.9737991503207e-014, 1.4210854715202e-014, 3.9624, !- X,Y,Z Vertex 1 {m}
  -4.9737991503207e-014, 1.4210854715202e-014, 0, !- X,Y,Z Vertex 2 {m}
  4.57199999999995, -4.572, 0,            !- X,Y,Z Vertex 3 {m}
  4.57199999999995, -4.572, 3.9624;       !- X,Y,Z Vertex 4 {m}

OS:Surface,
  {e865ea1e-95d2-4f52-b83f-39d79e7d2652}, !- Handle
  Surface 12,                             !- Name
  RoofCeiling,                            !- Surface Type
  ,                                       !- Construction Name
  {84d3fc08-c4e2-415a-9a9f-d72c185e203e}, !- Space Name
  Surface,                                !- Outside Boundary Condition
  {d0bf681c-25fe-481d-b41d-89078729465b}, !- Outside Boundary Condition Object
  NoSun,                                  !- Sun Exposure
  NoWind,                                 !- Wind Exposure
  ,                                       !- View Factor to Ground
  ,                                       !- Number of Vertices
  4.57199999999995, -4.572, 3.9624,       !- X,Y,Z Vertex 1 {m}