
OS:Version,
  {e5220aa8-3b8a-4250-9898-bb8494dbdd13}, !- Handle
  2.7.2;                                  !- Version Identifier

OS:SpaceType,
  {fdf9bc4b-dc30-4be0-987d-cf4e66021fb5}, !- Handle
  SecondarySchool Auditorium,             !- Name
  ,                                       !- Default Construction Set Name
  ,                                       !- Default Schedule Set Name
  {42285ad4-686c-4ccb-894e-5d76e282d56e}, !- Group Rendering Name
  ,                                       !- Design Specification Outdoor Air Object Name
  ,                                       !- Standards Template
  SecondarySchool,                        !- Standards Building Type
  Auditorium;                             !- Standards Space Type

OS:Rendering:Color,
  {42285ad4-686c-4ccb-894e-5d76e282d56e}, !- Handle
  SecondarySchool Auditorium,             !- Name
  230,                                    !- Rendering Red Value
  196,                                    !- Rendering Green Value
  120;                                    !- Rendering Blue Value

OS:SpaceType,
  {47e1c13a-4d7f-4b76-9e05-3fb71e7314fa}, !- Handle
  SecondarySchool Cafeteria,              !- Name
  ,                                       !- Default Construction Set Name
  ,                                       !- Default Schedule Set Name
  {bd8c52c0-8f04-4e48-97e5-2e9ef351339e}, !- Group Rendering Name
  ,                                       !- Design Specification Outdoor Air Object Name
  ,                                       !- Standards Template
  SecondarySchool,                        !- Standards Building Type
  Cafeteria;                              !- Standards Space Type

OS:Rendering:Color,
  {bd8c52c0-8f04-4e48-97e5-2e9ef351339e}, !- Handle
  SecondarySchool Cafeteria,              !- Name
  31,                                     !- Rendering Red Value
  169,                                    !- Rendering Green Value
  34;                                     !- Rendering Blue Value

OS:SpaceType,
  {f7e7787a-5ce0-4fd2-9e94-66bbfcf1f559}, !- Handle
  SecondarySchool Classroom,              !- Name
  ,                                       !- Default Construction Set Name
  ,                                       !- Default Schedule Set Name
  {9d54c3ad-086b-414c-b705-70a303f0425e}, !- Group Rendering Name
  ,                                       !- Design Specification Outdoor Air Object Name
  ,                                       !- Standards Template
  SecondarySchool,                        !- Standards Building Type
  Classroom;                              !- Standards Space Type

OS:Rendering:Color,
  {9d54c3ad-086b-414c-b705-70a303f0425e}, !- Handle
  SecondarySchool Classroom,              !- Name
  120,                                    !- Rendering Red Value
  230,                                    !- Rendering Green Value
  199;                                    !- Rendering Blue Value

OS:SpaceType,
  {bcc44c76-6e30-4cb3-9c3f-597d815d4c0c}, !- Handle
  SecondarySchool Corridor,               !- Name
  ,                                       !- Default Construction Set Name
  ,                                       !- Default Schedule Set Name
  {7fa9cfd2-afe9-4b7c-ba2a-2812f5df3cf7}, !- Group Rendering Name
  ,                                       !- Design Specification Outdoor Air Object Name
  ,                                       !- Standards Template
  SecondarySchool,                        !- Standards Building Type
  Corridor;                               !- Standards Space Type

OS:Rendering:Color,
  {7fa9cfd2-afe9-4b7c-ba2a-2812f5df3cf7}, !- Handle
  SecondarySchool Corridor,               !- Name
  169,                                    !- Rendering Red Value
  31,                                     !- Rendering Green Value
  31;                                     !- Rendering Blue Value

OS:SpaceType,
  {807a3b80-d05a-4e26-92d9-dd34f70018f2}, !- Handle
  SecondarySchool Gym,                    !- Name
  ,                                       !- Default Construction Set Name
  ,                                       !- Default Schedule Set Name
  {d9b0bf48-d0d2-4815-8c2f-45480ed06ddb}, !- Group Rendering Name
  ,                                       !- Design Specification Outdoor Air Object Name
  ,                                       !- Standards Template
  SecondarySchool,                        !- Standards Building Type
  Gym;                                    !- Standards Space Type

OS:Rendering:Color,
  {d9b0bf48-d0d2-4815-8c2f-45480ed06ddb}, !- Handle
  SecondarySchool Gym,                    !- Name
  154,                                    !- Rendering Red Value
  230,                                    !- Rendering Green Value
  120;                                    !- Rendering Blue Value

OS:SpaceType,
  {17ba9d9f-ba53-4ef9-b532-093f61f69deb}, !- Handle
  SecondarySchool Kitchen,                !- Name
  ,                                       !- Default Construction Set Name
  ,                                       !- Default Schedule Set Name
  {882a842e-7ab8-42c5-97d8-6308a4157b55}, !- Group Rendering Name
  ,                                       !- Design Specification Outdoor Air Object Name
  ,                                       !- Standards Template
  SecondarySchool,                        !- Standards Building Type
  Kitchen;                                !- Standards Space Type

OS:Rendering:Color,
  {882a842e-7ab8-42c5-97d8-6308a4157b55}, !- Handle
  SecondarySchool Kitchen,                !- Name
  78,                                     !- Rendering Red Value
  222,                                    !- Rendering Green Value
  133;                                    !- Rendering Blue Value

OS:SpaceType,
  {acab931d-4fcd-489c-b674-43e576cd821a}, !- Handle
  SecondarySchool Library,                !- Name
  ,                                       !- Default Construction Set Name
  ,                                       !- Default Schedule Set Name
  {8989d0f5-b08c-468c-a146-13e4ea589067}, !- Group Rendering Name
  ,                                       !- Design Specification Outdoor Air Object Name
  ,                                       !- Standards Template
  SecondarySchool,                        !- Standards Building Type
  Library;                                !- Standards Space Type

OS:Rendering:Color,
  {8989d0f5-b08c-468c-a146-13e4ea589067}, !- Handle
  SecondarySchool Library,                !- Name
  230,                                    !- Rendering Red Value
  196,                                    !- Rendering Green Value
  120;                                    !- Rendering Blue Value

OS:SpaceType,
  {1960a6c4-d54f-4653-9b6a-2de33497b069}, !- Handle
  SecondarySchool Lobby,                  !- Name
  ,                                       !- Default Construction Set Name
  ,                                       !- Default Schedule Set Name
  {e8ec4d06-a814-4b99-b243-60b91af908f3}, !- Group Rendering Name
  ,                                       !- Design Specification Outdoor Air Object Name
  ,                                       !- Standards Template
  SecondarySchool,                        !- Standards Building Type
  Lobby;                                  !- Standards Space Type

OS:Rendering:Color,
  {e8ec4d06-a814-4b99-b243-60b91af908f3}, !- Handle
  SecondarySchool Lobby,                  !- Name
  230,                                    !- Rendering Red Value
  157,                                    !- Rendering Green Value
  120;                                    !- Rendering Blue Value

OS:SpaceType,
  {8668492f-b182-4f4e-bd19-3008621d04e0}, !- Handle
  SecondarySchool Mechanical,             !- Name
  ,                                       !- Default Construction Set Name
  ,                                       !- Default Schedule Set Name
  {9bc28d92-3a4f-4b85-a6cf-0b0de5764a60}, !- Group Rendering Name
  ,                                       !- Design Specification Outdoor Air Object Name
  ,                                       !- Standards Template
  SecondarySchool,                        !- Standards Building Type
  Mechanical;                             !- Standards Space Type

OS:Rendering:Color,
  {9bc28d92-3a4f-4b85-a6cf-0b0de5764a60}, !- Handle
  SecondarySchool Mechanical,             !- Name
  41,                                     !- Rendering Red Value
  31,                                     !- Rendering Green Value
  169;                                    !- Rendering Blue Value

OS:SpaceType,
  {4ae28c60-04ef-4560-b662-af35a8cf1df4}, !- Handle
  SecondarySchool Office,                 !- Name
  ,                                       !- Default Construction Set Name
  ,                                       !- Default Schedule Set Name
  {a591e050-10c6-44cf-805e-051bd3e070fe}, !- Group Rendering Name
  ,                                       !- Design Specification Outdoor Air Object Name
  ,                                       !- Standards Template
  SecondarySchool,                        !- Standards Building Type
  Office;                                 !- Standards Space Type

OS:Rendering:Color,
  {a591e050-10c6-44cf-805e-051bd3e070fe}, !- Handle
  SecondarySchool Office,                 !- Name
  120,                                    !- Rendering Red Value
  230,                                    !- Rendering Green Value
  199;                                    !- Rendering Blue Value

OS:SpaceType,
  {b7d6a379-05fe-424f-bf9a-9d3b89a24b4f}, !- Handle
  SecondarySchool Restroom,               !- Name
  ,                                       !- Default Construction Set Name
  ,                                       !- Default Schedule Set Name
  {b5a113d7-936a-41a2-a51b-66b5089490de}, !- Group Rendering Name
  ,                                       !- Design Specification Outdoor Air Object Name
  ,                                       !- Standards Template
  SecondarySchool,                        !- Standards Building Type
  Restroom;                               !- Standards Space Type

OS:Rendering:Color,
  {b5a113d7-936a-41a2-a51b-66b5089490de}, !- Handle
  SecondarySchool Restroom,               !- Name
  169,                                    !- Rendering Red Value
  169,                                    !- Rendering Green Value
  31;                                     !- Rendering Blue Value

OS:Building,
  {19b16db6-d343-4cf5-a9e7-bcb7d45edf3a}, !- Handle
  90.1-2004|SecondarySchool,              !- Name
  ,                                       !- Building Sector Type
  45,                                     !- North Axis {deg}
  ,                                       !- Nominal Floor to Floor Height {m}
  {f7e7787a-5ce0-4fd2-9e94-66bbfcf1f559}, !- Space Type Name
  ,                                       !- Default Construction Set Name
  ;                                       !- Default Schedule Set Name

OS:Site,
  {c3f267f0-2135-4724-b31a-ff33e8bc8cdd}, !- Handle
  Site 1,                                 !- Name
  ,                                       !- Latitude {deg}
  ,                                       !- Longitude {deg}
  ,                                       !- Time Zone {hr}
  ,                                       !- Elevation {m}
  ;                                       !- Terrain

OS:BuildingStory,
  {f1c9753c-f66e-45d2-b4b0-0aed00cd706c}, !- Handle
  Story B1,                               !- Name
  -3.9624,                                !- Nominal Z Coordinate {m}
  3.9624,                                 !- Nominal Floor to Floor Height {m}
  ,                                       !- Default Construction Set Name
  ,                                       !- Default Schedule Set Name
  ;                                       !- Group Rendering Name

OS:Space,
  {8880e4df-18bf-45a9-8e55-a48ed6443106}, !- Handle
  West Perimeter Space - Story B1,        !- Name
  ,                                       !- Space Type Name
  ,                                       !- Default Construction Set Name
  ,                                       !- Default Schedule Set Name
  -0,                                     !- Direction of Relative North {deg}
  -39.3495107974674,                      !- X Origin {m}
  -13.1165035991558,                      !- Y Origin {m}
  -3.9624,                                !- Z Origin {m}
  {f1c9753c-f66e-45d2-b4b0-0aed00cd706c}, !- Building Story Name
  {efe85976-42db-4091-acc5-210330b2d9af}; !- Thermal Zone Name

OS:Surface,
  {f4976a4b-4691-4390-9fa2-0ce9fb0d41fa}, !- Handle
  Surface 1,                              !- Name
  Floor,                                  !- Surface Type
  ,                                       !- Construction Name
  {8880e4df-18bf-45a9-8e55-a48ed6443106}, !- Space Name
  Ground,                                 !- Outside Boundary Condition
  ,                                       !- Outside Boundary Condition Object
  NoSun,                                  !- Sun Exposure
  NoWind,                                 !- Wind Exposure
  ,                                       !- View Factor to Ground
  ,                                       !- Number of Vertices
  -4.9737991503207e-014, -1.4210854715202e-014, 0, !- X,Y,Z Vertex 1 {m}
  -4.9737991503207e-014, 26.2330071983116, 0, !- X,Y,Z Vertex 2 {m}
  4.57199999999995, 21.6610071983116, 0,  !- X,Y,Z Vertex 3 {m}
  4.57199999999995, 4.572, 0;             !- X,Y,Z Vertex 4 {m}

OS:Surface,
  {24f34f17-de76-432d-8f5d-cbd2a8a2163f}, !- Handle
  Surface 2,                              !- Name
  Wall,                                   !- Surface Type
  ,                                       !- Construction Name
  {8880e4df-18bf-45a9-8e55-a48ed6443106}, !- Space Name
  Ground,                                 !- Outside Boundary Condition
  ,                                       !- Outside Boundary Condition Object
  NoSun,                                  !- Sun Exposure
  NoWind,                                 !- Wind Exposure
  ,                                       !- View Factor to Ground
  ,                                       !- Number of Vertices
  -4.9737991503207e-014, 26.2330071983116, 3.9624, !- X,Y,Z Vertex 1 {m}
  -4.9737991503207e-014, 26.2330071983116, 0, !- X,Y,Z Vertex 2 {m}
  -4.9737991503207e-014, -1.4210854715202e-014, 0, !- X,Y,Z Vertex 3 {m}
  -4.9737991503207e-014, -1.4210854715202e-014, 3.9624; !- X,Y,Z Vertex 4 {m}

OS:Surface,
  {22ab00c1-adef-4b62-b5d8-8b154b682bc0}, !- Handle
  Surface 3,                              !- Name
  Wall,                                   !- Surface Type
  ,                                       !- Construction Name
  {8880e4df-18bf-45a9-8e55-a48ed6443106}, !- Space Name
  Surface,                                !- Outside Boundary Condition
  {69d60b83-04ba-4ad7-b1d0-c25b1eb65c48}, !- Outside Boundary Condition Object
  NoSun,                                  !- Sun Exposure
  NoWind,                                 !- Wind Exposure
  ,                                       !- View Factor to Ground
  ,                                       !- Number of Vertices
  4.57199999999995, 21.6610071983116, 3.9624, !- X,Y,Z Vertex 1 {m}
  4.57199999999995, 21.6610071983116, 0,  !- X,Y,Z Vertex 2 {m}
  -4.9737991503207e-014, 26.2330071983116, 0, !- X,Y,Z Vertex 3 {m}
  -4.9737991503207e-014, 26.2330071983116, 3.9624; !- X,Y,Z Vertex 4 {m}

OS:Surface,
  {860b6fc0-8f98-44ea-9099-0117ffb5ca4b}, !- Handle
  Surface 4,                              !- Name
  Wall,                                   !- Surface Type
  ,                                       !- Construction Name
  {8880e4df-18bf-45a9-8e55-a48ed6443106}, !- Space Name
  Surface,                                !- Outside Boundary Condition
  {fb027621-777d-4f58-aa37-29641dcda363}, !- Outside Boundary Condition Object
  NoSun,                                  !- Sun Exposure
  NoWind,                                 !- Wind Exposure
  ,                                       !- View Factor to Ground
  ,                                       !- Number of Vertices
  4.57199999999995, 4.572, 3.9624,        !- X,Y,Z Vertex 1 {m}
  4.57199999999995, 4.572, 0,             !- X,Y,Z Vertex 2 {m}
  4.57199999999995, 21.6610071983116, 0,  !- X,Y,Z Vertex 3 {m}
  4.57199999999995, 21.6610071983116, 3.9624; !- X,Y,Z Vertex 4 {m}

OS:Surface,
  {303057b2-d9f5-4112-885d-520261b94d38}, !- Handle
  Surface 5,                              !- Name
  Wall,                                   !- Surface Type
  ,                                       !- Construction Name
  {8880e4df-18bf-45a9-8e55-a48ed6443106}, !- Space Name
  Surface,                                !- Outside Boundary Condition
  {ccf536d7-2e4b-4b84-b857-9e2a97d77ee6}, !- Outside Boundary Condition Object
  NoSun,                                  !- Sun Exposure
  NoWind,                                 !- Wind Exposure
  ,                                       !- View Factor to Ground
  ,                                       !- Number of Vertices
  -4.9737991503207e-014, -1.4210854715202e-014, 3.9624, !- X,Y,Z Vertex 1 {m}
  -4.9737991503207e-014, -1.4210854715202e-014, 0, !- X,Y,Z Vertex 2 {m}
  4.57199999999995, 4.572, 0,             !- X,Y,Z Vertex 3 {m}
  4.57199999999995, 4.572, 3.9624;        !- X,Y,Z Vertex 4 {m}

OS:Surface,
  {380ffd1b-bdbe-484e-bff1-0e226b2dd3c0}, !- Handle
  Surface 6,                              !- Name
  RoofCeiling,                            !- Surface Type
  ,                                       !- Construction Name
  {8880e4df-18bf-45a9-8e55-a48ed6443106}, !- Space Name
  Surface,                                !- Outside Boundary Condition
  {2efc3fa1-4151-465f-bfb0-9b2d1313383e}, !- Outside Boundary Condition Object
  NoSun,                                  !- Sun Exposure
  NoWind,                                 !- Wind Exposure
  ,                                       !- View Factor to Ground
  ,                                       !- Number of Vertices
  4.57199999999995, 4.572, 3.9624,        !- X,Y,Z Vertex 1 {m}
  4.57199999999995, 21.6610071983116, 3.9624, !- X,Y,Z Vertex 2 {m}
  -4.9737991503207e-014, 26.2330071983116, 3.9624, !- X,Y,Z Vertex 3 {m}
  -4.9737991503207e-014, -1.4210854715202e-014, 3.9624; !- X,Y,Z Vertex 4 {m}

OS:ThermalZone,
  {efe85976-42db-4091-acc5-210330b2d9af}, !- Handle
  Zone West Perimeter Space - Story B1,   !- Name
  1,                                      !- Multiplier
  ,                                       !- Ceiling Height {m}
  ,                                       !- Volume {m3}
  ,                                       !- Floor Area {m2}
  ,                                       !- Zone Inside Convection Algorithm
  ,                                       !- Zone Outside Convection Algorithm
  ,                                       !- Zone Conditioning Equipment List Name
  {776e2635-5de1-4784-af14-105f5b1df65a}, !- Zone Air Inlet Port List
  {6bbfa863-f273-4d73-b641-de83f2c018d4}, !- Zone Air Exhaust Port List
  {b5dbb188-90de-439d-aaa6-10253a5af1da}, !- Zone Air Node Name
  {3655c453-662f-488a-81ae-13a608b868bc}, !- Zone Return Air Port List
  ,                                       !- Primary Daylighting Control Name
  ,                                       !- Fraction of Zone Controlled by Primary Daylighting Control
  ,                                       !- Secondary Daylighting Control Name
  ,                                       !- Fraction of Zone Controlled by Secondary Daylighting Control
  ,                                       !- Illuminance Map Name
  ,                                       !- Group Rendering Name
  ,                                       !- Thermostat Name
  No;                                     !- Use Ideal Air Loads

OS:Node,
  {2e3fd375-59e3-4a9a-a825-a0b5e35e3c64}, !- Handle
  Node 1,                                 !- Name
  {b5dbb188-90de-439d-aaa6-10253a5af1da}, !- Inlet Port
  ;                                       !- Outlet Port

OS:Connection,
  {b5dbb188-90de-439d-aaa6-10253a5af1da}, !- Handle
  {b2c44207-5863-4eab-97b4-9cea46c1d6d0}, !- Name
  {efe85976-42db-4091-acc5-210330b2d9af}, !- Source Object
  11,                                     !- Outlet Port
  {2e3fd375-59e3-4a9a-a825-a0b5e35e3c64}, !- Target Object
  2;                                      !- Inlet Port

OS:PortList,
  {776e2635-5de1-4784-af14-105f5b1df65a}, !- Handle
  {d0a9f877-316b-4782-ba98-cebcb8e2df14}, !- Name
  {efe85976-42db-4091-acc5-210330b2d9af}; !- HVAC Component

OS:PortList,
  {6bbfa863-f273-4d73-b641-de83f2c018d4}, !- Handle
  {f11a66a4-1b52-45ef-85c3-a8326be88875}, !- Name
  {efe85976-42db-4091-acc5-210330b2d9af}; !- HVAC Component

OS:PortList,
  {3655c453-662f-488a-81ae-13a608b868bc}, !- Handle
  {de13cea9-c323-4904-bbbe-a641e9a1383a}, !- Name
  {efe85976-42db-4091-acc5-210330b2d9af}; !- HVAC Component

OS:Sizing:Zone,
  {43a0e204-a675-41fc-a4e9-3886723d8347}, !- Handle
  {efe85976-42db-4091-acc5-210330b2d9af}, !- Zone or ZoneList Name
  SupplyAirTemperature,                   !- Zone Cooling Design Supply Air Temperature Input Method
  14,                                     !- Zone Cooling Design Supply Air Temperature {C}
  11.11,                                  !- Zone Cooling Design Supply Air Temperature Difference {deltaC}
  SupplyAirTemperature,                   !- Zone Heating Design Supply Air Temperature Input Method
  40,                                     !- Zone Heating Design Supply Air Temperature {C}
  11.11,                                  !- Zone Heating Design Supply Air Temperature Difference {deltaC}
  0.0085,                                 !- Zone Cooling Design Supply Air Humidity Ratio {kg-H2O/kg-air}
  0.008,                                  !- Zone Heating Design Supply Air Humidity Ratio {kg-H2O/kg-air}
  ,                                       !- Zone Heating Sizing Factor
  ,                                       !- Zone Cooling Sizing Factor
  DesignDay,                              !- Cooling Design Air Flow Method
  ,                                       !- Cooling Design Air Flow Rate {m3/s}
  ,                                       !- Cooling Minimum Air Flow per Zone Floor Area {m3/s-m2}
  ,                                       !- Cooling Minimum Air Flow {m3/s}
  ,                                       !- Cooling Minimum Air Flow Fraction
  DesignDay,                              !- Heating Design Air Flow Method
  ,                                       !- Heating Design Air Flow Rate {m3/s}
  ,                                       !- Heating Maximum Air Flow per Zone Floor Area {m3/s-m2}
  ,                                       !- Heating Maximum Air Flow {m3/s}
  ,                                       !- Heating Maximum Air Flow Fraction
  ,                                       !- Design Zone Air Distribution Effectiveness in Cooling Mode
  ,                                       !- Design Zone Air Distribution Effectiveness in Heating Mode
  No,                                     !- Account for Dedicated Outdoor Air System
  NeutralSupplyAir,                       !- Dedicated Outdoor Air System Control Strategy
  autosize,                               !- Dedicated Outdoor Air Low Setpoint Temperature for Design {C}
  autosize;                               !- Dedicated Outdoor Air High Setpoint Temperature for Design {C}

OS:ZoneHVAC:EquipmentList,
  {f8fffaa3-4a1b-4c55-b143-a3b3b3e82364}, !- Handle
  Zone HVAC Equipment List 1,             !- Name
  {efe85976-42db-4091-acc5-210330b2d9af}; !- Thermal Zone

OS:Space,
  {f5d3f364-afe9-4ac2-96f9-dccd5cb0f696}, !- Handle
  North Perimeter Space - Story B1,       !- Name
  ,                                       !- Space Type Name
  ,                                       !- Default Construction Set Name
  ,                                       !- Default Schedule Set Name
  -0,                                     !- Direction of Relative North {deg}
  -39.3495107974674,                      !- X Origin {m}
  13.1165035991558,                       !- Y Origin {m}
  -3.9624,                                !- Z Origin {m}
  {f1c9753c-f66e-45d2-b4b0-0aed00cd706c}, !- Building Story Name
  {a293e222-927b-42cf-b4ca-608094b28565}; !- Thermal Zone Name

OS:Surface,
  {809a53f4-6c0a-4f20-858e-5705095df23f}, !- Handle
  Surface 7,                              !- Name
  Floor,                                  !- Surface Type
  ,                                       !- Construction Name
  {f5d3f364-afe9-4ac2-96f9-dccd5cb0f696}, !- Space Name
  Ground,                                 !- Outside Boundary Condition
  ,                                       !- Outside Boundary Condition Object
  NoSun,                                  !- Sun Exposure
  NoWind,                                 !- Wind Exposure
  ,                                       !- View Factor to Ground
  ,                                       !- Number of Vertices
  -4.9737991503207e-014, 1.4210854715202e-014, 0, !- X,Y,Z Vertex 1 {m}
  78.6990215949347, 1.4210854715202e-014, 0, !- X,Y,Z Vertex 2 {m}
  74.1270215949347, -4.572, 0,            !- X,Y,Z Vertex 3 {m}
  4.57199999999995, -4.572, 0;            !- X,Y,Z Vertex 4 {m}

OS:Surface,
  {aa33270e-cca0-4361-8c69-69a6beb31a01}, !- Handle
  Surface 8,                              !- Name
  Wall,                                   !- Surface Type
  ,                                       !- Construction Name
  {f5d3f364-afe9-4ac2-96f9-dccd5cb0f696}, !- Space Name
  Ground,                                 !- Outside Boundary Condition
  ,                                       !- Outside Boundary Condition Object
  NoSun,                                  !- Sun Exposure
  NoWind,                                 !- Wind Exposure
  ,                                       !- View Factor to Ground
  ,                                       !- Number of Vertices
  78.6990215949347, 1.4210854715202e-014, 3.9624, !- X,Y,Z Vertex 1 {m}
  78.6990215949347, 1.4210854715202e-014, 0, !- X,Y,Z Vertex 2 {m}
  -4.9737991503207e-014, 1.4210854715202e-014, 0, !- X,Y,Z Vertex 3 {m}
  -4.9737991503207e-014, 1.4210854715202e-014, 3.9624; !- X,Y,Z Vertex 4 {m}

OS:Surface,
  {0bf4430f-e5cc-479f-b084-e0a3a0cc471b}, !- Handle
  Surface 9,                              !- Name
  Wall,                                   !- Surface Type
  ,                                       !- Construction Name
  {f5d3f364-afe9-4ac2-96f9-dccd5cb0f696}, !- Space Name
  Surface,                                !- Outside Boundary Condition
  {05d582a6-6f06-4cb5-bd8d-2e5364750344}, !- Outside Boundary Condition Object
  NoSun,                                  !- Sun Exposure
  NoWind,                                 !- Wind Exposure
  ,                                       !- View Factor to Ground
  ,                                       !- Number of Vertices
  74.1270215949347, -4.572, 3.9624,       !- X,Y,Z Vertex 1 {m}
  74.1270215949347, -4.572, 0,            !- X,Y,Z Vertex 2 {m}
  78.6990215949347, 1.4210854715202e-014, 0, !- X,Y,Z Vertex 3 {m}
  78.6990215949347, 1.4210854715202e-014, 3.9624; !- X,Y,Z Vertex 4 {m}

OS:Surface,
  {3d268e08-caa4-49cc-a3bd-c75d2d17159c}, !- Handle
  Surface 10,                             !- Name
  Wall,                                   !- Surface Type
  ,                                       !- Construction Name
  {f5d3f364-afe9-4ac2-96f9-dccd5cb0f696}, !- Space Name
  Surface,                                !- Outside Boundary Condition
  {0df6f298-1054-440c-b660-899e74c51279}, !- Outside Boundary Condition Object
  NoSun,                                  !- Sun Exposure
  NoWind,                                 !- Wind Exposure
  ,                                       !- View Factor to Ground
  ,                                       !- Number of Vertices
  4.57199999999995, -4.572, 3.9624,       !- X,Y,Z Vertex 1 {m}
  4.57199999999995, -4.572, 0,            !- X,Y,Z Vertex 2 {m}
  74.1270215949347, -4.572, 0,            !- X,Y,Z Vertex 3 {m}
  74.1270215949347, -4.572, 3.9624;       !- X,Y,Z Vertex 4 {m}

OS:Surface,
  {69d60b83-04ba-4ad7-b1d0-c25b1eb65c48}, !- Handle
  Surface 11,                             !- Name
  Wall,                                   !- Surface Type
  ,                                       !- Construction Name
  {f5d3f364-afe9-4ac2-96f9-dccd5cb0f696}, !- Space Name
  Surface,                                !- Outside Boundary Condition
  {22ab00c1-adef-4b62-b5d8-8b154b682bc0}, !- Outside Boundary Condition Object
  NoSun,                                  !- Sun Exposure
  NoWind,                                 !- Wind Exposure
  ,                                       !- View Factor to Ground
  ,                                       !- Number of Vertices
  -4.9737991503207e-014, 1.4210854715202e-014, 3.9624, !- X,Y,Z Vertex 1 {m}
  -4.9737991503207e-014, 1.4210854715202e-014, 0, !- X,Y,Z Vertex 2 {m}
  4.57199999999995, -4.572, 0,            !- X,Y,Z Vertex 3 {m}
  4.57199999999995, -4.572, 3.9624;       !- X,Y,Z Vertex 4 {m}

OS:Surface,
  {e9bf1017-22cc-4f8e-9e44-6c46228f4d08}, !- Handle
  Surface 12,                             !- Name
  RoofCeiling,                            !- Surface Type
  ,                                       !- Construction Name
  {f5d3f364-afe9-4ac2-96f9-dccd5cb0f696}, !- Space Name
  Surface,                                !- Outside Boundary Condition
  {6f1562a1-aa14-4aaa-8a46-ddff4fb0a058}, !- Outside Boundary Condition Object
  NoSun,                                  !- Sun Exposure
  NoWind,                                 !- Wind Exposure
  ,                                       !- View Factor to Ground
  ,                                       !- Number of Vertices
  4.57199999999995, -4.572, 3.9624,       !- X,Y,Z Vertex 1 {m}