
OS:Version,
  {a0ec6e48-d7cb-423c-8c1d-6f4913dbeed3}, !- Handle
  2.7.2;                                  !- Version Identifier

OS:SpaceType,
  {6dfd6c26-de74-4845-aacb-8ae77aecadf4}, !- Handle
  SecondarySchool Auditorium,             !- Name
  ,                                       !- Default Construction Set Name
  ,                                       !- Default Schedule Set Name
  {c05e7f15-99b3-4d4c-8258-c58766bda699}, !- Group Rendering Name
  ,                                       !- Design Specification Outdoor Air Object Name
  ,                                       !- Standards Template
  SecondarySchool,                        !- Standards Building Type
  Auditorium;                             !- Standards Space Type

OS:Rendering:Color,
  {c05e7f15-99b3-4d4c-8258-c58766bda699}, !- Handle
  SecondarySchool Auditorium,             !- Name
  230,                                    !- Rendering Red Value
  196,                                    !- Rendering Green Value
  120;                                    !- Rendering Blue Value

OS:SpaceType,
  {f934cb5b-8e3f-4a1c-9652-798cfe517788}, !- Handle
  SecondarySchool Cafeteria,              !- Name
  ,                                       !- Default Construction Set Name
  ,                                       !- Default Schedule Set Name
  {ae61e08c-aff6-4f5f-885a-8ece51855da6}, !- Group Rendering Name
  ,                                       !- Design Specification Outdoor Air Object Name
  ,                                       !- Standards Template
  SecondarySchool,                        !- Standards Building Type
  Cafeteria;                              !- Standards Space Type

OS:Rendering:Color,
  {ae61e08c-aff6-4f5f-885a-8ece51855da6}, !- Handle
  SecondarySchool Cafeteria,              !- Name
  31,                                     !- Rendering Red Value
  169,                                    !- Rendering Green Value
  34;                                     !- Rendering Blue Value

OS:SpaceType,
  {fc8e3880-118f-4ad0-8d96-fae7939b2455}, !- Handle
  SecondarySchool Classroom,              !- Name
  ,                                       !- Default Construction Set Name
  ,                                       !- Default Schedule Set Name
  {27f2dacc-c1dc-4034-8022-0a67d0ba3255}, !- Group Rendering Name
  ,                                       !- Design Specification Outdoor Air Object Name
  ,                                       !- Standards Template
  SecondarySchool,                        !- Standards Building Type
  Classroom;                              !- Standards Space Type

OS:Rendering:Color,
  {27f2dacc-c1dc-4034-8022-0a67d0ba3255}, !- Handle
  SecondarySchool Classroom,              !- Name
  120,                                    !- Rendering Red Value
  230,                                    !- Rendering Green Value
  199;                                    !- Rendering Blue Value

OS:SpaceType,
  {1ef29c17-bec9-4e2e-8350-cfb98229c5ff}, !- Handle
  SecondarySchool Corridor,               !- Name
  ,                                       !- Default Construction Set Name
  ,                                       !- Default Schedule Set Name
  {38d6fa2f-e375-47d1-8c21-86a62670b0e2}, !- Group Rendering Name
  ,                                       !- Design Specification Outdoor Air Object Name
  ,                                       !- Standards Template
  SecondarySchool,                        !- Standards Building Type
  Corridor;                               !- Standards Space Type

OS:Rendering:Color,
  {38d6fa2f-e375-47d1-8c21-86a62670b0e2}, !- Handle
  SecondarySchool Corridor,               !- Name
  169,                                    !- Rendering Red Value
  31,                                     !- Rendering Green Value
  31;                                     !- Rendering Blue Value

OS:SpaceType,
  {f6edb59d-d08e-4519-b63e-0b94e24d5c00}, !- Handle
  SecondarySchool Gym,                    !- Name
  ,                                       !- Default Construction Set Name
  ,                                       !- Default Schedule Set Name
  {d2fcf872-b232-4c68-8ded-d16e79b72697}, !- Group Rendering Name
  ,                                       !- Design Specification Outdoor Air Object Name
  ,                                       !- Standards Template
  SecondarySchool,                        !- Standards Building Type
  Gym;                                    !- Standards Space Type

OS:Rendering:Color,
  {d2fcf872-b232-4c68-8ded-d16e79b72697}, !- Handle
  SecondarySchool Gym,                    !- Name
  154,                                    !- Rendering Red Value
  230,                                    !- Rendering Green Value
  120;                                    !- Rendering Blue Value

OS:SpaceType,
  {d5e00a25-cb7b-4122-80ba-260f138b9257}, !- Handle
  SecondarySchool Kitchen,                !- Name
  ,                                       !- Default Construction Set Name
  ,                                       !- Default Schedule Set Name
  {1ea9d3a9-3184-4c8c-a1ff-647e511a8472}, !- Group Rendering Name
  ,                                       !- Design Specification Outdoor Air Object Name
  ,                                       !- Standards Template
  SecondarySchool,                        !- Standards Building Type
  Kitchen;                                !- Standards Space Type

OS:Rendering:Color,
  {1ea9d3a9-3184-4c8c-a1ff-647e511a8472}, !- Handle
  SecondarySchool Kitchen,                !- Name
  78,                                     !- Rendering Red Value
  222,                                    !- Rendering Green Value
  133;                                    !- Rendering Blue Value

OS:SpaceType,
  {d1db9a92-97c2-4b34-8cdb-de3e23a4b69e}, !- Handle
  SecondarySchool Library,                !- Name
  ,                                       !- Default Construction Set Name
  ,                                       !- Default Schedule Set Name
  {ceefdf87-82d5-4944-b7a4-5b93582d7cee}, !- Group Rendering Name
  ,                                       !- Design Specification Outdoor Air Object Name
  ,                                       !- Standards Template
  SecondarySchool,                        !- Standards Building Type
  Library;                                !- Standards Space Type

OS:Rendering:Color,
  {ceefdf87-82d5-4944-b7a4-5b93582d7cee}, !- Handle
  SecondarySchool Library,                !- Name
  230,                                    !- Rendering Red Value
  196,                                    !- Rendering Green Value
  120;                                    !- Rendering Blue Value

OS:SpaceType,
  {c00bd1cc-d0fb-4719-8cc3-0d64ff704408}, !- Handle
  SecondarySchool Lobby,                  !- Name
  ,                                       !- Default Construction Set Name
  ,                                       !- Default Schedule Set Name
  {bc399746-62ce-49bb-90f8-356596c5a8a4}, !- Group Rendering Name
  ,                                       !- Design Specification Outdoor Air Object Name
  ,                                       !- Standards Template
  SecondarySchool,                        !- Standards Building Type
  Lobby;                                  !- Standards Space Type

OS:Rendering:Color,
  {bc399746-62ce-49bb-90f8-356596c5a8a4}, !- Handle
  SecondarySchool Lobby,                  !- Name
  230,                                    !- Rendering Red Value
  157,                                    !- Rendering Green Value
  120;                                    !- Rendering Blue Value

OS:SpaceType,
  {8a98d07a-e22e-48f0-9c64-ab87dd418b4e}, !- Handle
  SecondarySchool Mechanical,             !- Name
  ,                                       !- Default Construction Set Name
  ,                                       !- Default Schedule Set Name
  {9a10f04b-6877-4c14-b4c1-668da5223174}, !- Group Rendering Name
  ,                                       !- Design Specification Outdoor Air Object Name
  ,                                       !- Standards Template
  SecondarySchool,                        !- Standards Building Type
  Mechanical;                             !- Standards Space Type

OS:Rendering:Color,
  {9a10f04b-6877-4c14-b4c1-668da5223174}, !- Handle
  SecondarySchool Mechanical,             !- Name
  41,                                     !- Rendering Red Value
  31,                                     !- Rendering Green Value
  169;                                    !- Rendering Blue Value

OS:SpaceType,
  {36ca4b71-8478-43f1-82f0-ef3fd8649a38}, !- Handle
  SecondarySchool Office,                 !- Name
  ,                                       !- Default Construction Set Name
  ,                                       !- Default Schedule Set Name
  {572e55f0-d63a-4fe7-b07c-6404295361ab}, !- Group Rendering Name
  ,                                       !- Design Specification Outdoor Air Object Name
  ,                                       !- Standards Template
  SecondarySchool,                        !- Standards Building Type
  Office;                                 !- Standards Space Type

OS:Rendering:Color,
  {572e55f0-d63a-4fe7-b07c-6404295361ab}, !- Handle
  SecondarySchool Office,                 !- Name
  120,                                    !- Rendering Red Value
  230,                                    !- Rendering Green Value
  199;                                    !- Rendering Blue Value

OS:SpaceType,
  {b0b80d77-6fdd-4bcc-8d70-8e359aac7f79}, !- Handle
  SecondarySchool Restroom,               !- Name
  ,                                       !- Default Construction Set Name
  ,                                       !- Default Schedule Set Name
  {fa796e04-1710-4e07-95e5-3588daa794df}, !- Group Rendering Name
  ,                                       !- Design Specification Outdoor Air Object Name
  ,                                       !- Standards Template
  SecondarySchool,                        !- Standards Building Type
  Restroom;                               !- Standards Space Type

OS:Rendering:Color,
  {fa796e04-1710-4e07-95e5-3588daa794df}, !- Handle
  SecondarySchool Restroom,               !- Name
  169,                                    !- Rendering Red Value
  169,                                    !- Rendering Green Value
  31;                                     !- Rendering Blue Value

OS:Building,
  {ce15b2be-0a19-4416-ba11-650120849c66}, !- Handle
  90.1-2004|SecondarySchool,              !- Name
  ,                                       !- Building Sector Type
  45,                                     !- North Axis {deg}
  ,                                       !- Nominal Floor to Floor Height {m}
  {fc8e3880-118f-4ad0-8d96-fae7939b2455}, !- Space Type Name
  ,                                       !- Default Construction Set Name
  ;                                       !- Default Schedule Set Name

OS:Site,
  {554baa10-720f-4ec2-b0bd-802667aa6039}, !- Handle
  Site 1,                                 !- Name
  ,                                       !- Latitude {deg}
  ,                                       !- Longitude {deg}
  ,                                       !- Time Zone {hr}
  ,                                       !- Elevation {m}
  ;                                       !- Terrain

OS:BuildingStory,
  {856da224-730e-4011-b7ea-88dd4138b369}, !- Handle
  Story B1,                               !- Name
  -3.9624,                                !- Nominal Z Coordinate {m}
  3.9624,                                 !- Nominal Floor to Floor Height {m}
  ,                                       !- Default Construction Set Name
  ,                                       !- Default Schedule Set Name
  ;                                       !- Group Rendering Name

OS:Space,
  {aec3050d-c52e-4f47-83ba-072629300cf1}, !- Handle
  West Perimeter Space - Story B1,        !- Name
  ,                                       !- Space Type Name
  ,                                       !- Default Construction Set Name
  ,                                       !- Default Schedule Set Name
  -0,                                     !- Direction of Relative North {deg}
  -39.3495107974674,                      !- X Origin {m}
  -13.1165035991558,                      !- Y Origin {m}
  -3.9624,                                !- Z Origin {m}
  {856da224-730e-4011-b7ea-88dd4138b369}, !- Building Story Name
  {8edf52cc-50c0-4199-9d42-01f99129eead}; !- Thermal Zone Name

OS:Surface,
  {121ec1ca-7a81-45d8-9e54-157aaa6275de}, !- Handle
  Surface 1,                              !- Name
  Floor,                                  !- Surface Type
  ,                                       !- Construction Name
  {aec3050d-c52e-4f47-83ba-072629300cf1}, !- Space Name
  Ground,                                 !- Outside Boundary Condition
  ,                                       !- Outside Boundary Condition Object
  NoSun,                                  !- Sun Exposure
  NoWind,                                 !- Wind Exposure
  ,                                       !- View Factor to Ground
  ,                                       !- Number of Vertices
  -4.9737991503207e-014, -1.4210854715202e-014, 0, !- X,Y,Z Vertex 1 {m}
  -4.9737991503207e-014, 26.2330071983116, 0, !- X,Y,Z Vertex 2 {m}
  4.57199999999995, 21.6610071983116, 0,  !- X,Y,Z Vertex 3 {m}
  4.57199999999995, 4.572, 0;             !- X,Y,Z Vertex 4 {m}

OS:Surface,
  {0a166847-c35a-4f00-a040-4b5f62c34078}, !- Handle
  Surface 2,                              !- Name
  Wall,                                   !- Surface Type
  ,                                       !- Construction Name
  {aec3050d-c52e-4f47-83ba-072629300cf1}, !- Space Name
  Ground,                                 !- Outside Boundary Condition
  ,                                       !- Outside Boundary Condition Object
  NoSun,                                  !- Sun Exposure
  NoWind,                                 !- Wind Exposure
  ,                                       !- View Factor to Ground
  ,                                       !- Number of Vertices
  -4.9737991503207e-014, 26.2330071983116, 3.9624, !- X,Y,Z Vertex 1 {m}
  -4.9737991503207e-014, 26.2330071983116, 0, !- X,Y,Z Vertex 2 {m}
  -4.9737991503207e-014, -1.4210854715202e-014, 0, !- X,Y,Z Vertex 3 {m}
  -4.9737991503207e-014, -1.4210854715202e-014, 3.9624; !- X,Y,Z Vertex 4 {m}

OS:Surface,
  {4046d926-8967-42e4-952c-eccf2bf580b6}, !- Handle
  Surface 3,                              !- Name
  Wall,                                   !- Surface Type
  ,                                       !- Construction Name
  {aec3050d-c52e-4f47-83ba-072629300cf1}, !- Space Name
  Surface,                                !- Outside Boundary Condition
  {5e4382b1-9828-448a-8d22-7fff480867f5}, !- Outside Boundary Condition Object
  NoSun,                                  !- Sun Exposure
  NoWind,                                 !- Wind Exposure
  ,                                       !- View Factor to Ground
  ,                                       !- Number of Vertices
  4.57199999999995, 21.6610071983116, 3.9624, !- X,Y,Z Vertex 1 {m}
  4.57199999999995, 21.6610071983116, 0,  !- X,Y,Z Vertex 2 {m}
  -4.9737991503207e-014, 26.2330071983116, 0, !- X,Y,Z Vertex 3 {m}
  -4.9737991503207e-014, 26.2330071983116, 3.9624; !- X,Y,Z Vertex 4 {m}

OS:Surface,
  {d1b00807-2f6d-4480-8f05-12e6a932ac37}, !- Handle
  Surface 4,                              !- Name
  Wall,                                   !- Surface Type
  ,                                       !- Construction Name
  {aec3050d-c52e-4f47-83ba-072629300cf1}, !- Space Name
  Surface,                                !- Outside Boundary Condition
  {da45d2e9-16ed-4a42-9317-fd81c5798e90}, !- Outside Boundary Condition Object
  NoSun,                                  !- Sun Exposure
  NoWind,                                 !- Wind Exposure
  ,                                       !- View Factor to Ground
  ,                                       !- Number of Vertices
  4.57199999999995, 4.572, 3.9624,        !- X,Y,Z Vertex 1 {m}
  4.57199999999995, 4.572, 0,             !- X,Y,Z Vertex 2 {m}
  4.57199999999995, 21.6610071983116, 0,  !- X,Y,Z Vertex 3 {m}
  4.57199999999995, 21.6610071983116, 3.9624; !- X,Y,Z Vertex 4 {m}

OS:Surface,
  {beb217ef-bfde-4ae7-ba8c-06e29962efbb}, !- Handle
  Surface 5,                              !- Name
  Wall,                                   !- Surface Type
  ,                                       !- Construction Name
  {aec3050d-c52e-4f47-83ba-072629300cf1}, !- Space Name
  Surface,                                !- Outside Boundary Condition
  {37f3a351-16ba-4be8-816a-856287659a23}, !- Outside Boundary Condition Object
  NoSun,                                  !- Sun Exposure
  NoWind,                                 !- Wind Exposure
  ,                                       !- View Factor to Ground
  ,                                       !- Number of Vertices
  -4.9737991503207e-014, -1.4210854715202e-014, 3.9624, !- X,Y,Z Vertex 1 {m}
  -4.9737991503207e-014, -1.4210854715202e-014, 0, !- X,Y,Z Vertex 2 {m}
  4.57199999999995, 4.572, 0,             !- X,Y,Z Vertex 3 {m}
  4.57199999999995, 4.572, 3.9624;        !- X,Y,Z Vertex 4 {m}

OS:Surface,
  {8bcb04bd-7c27-4190-8507-262be21c6e75}, !- Handle
  Surface 6,                              !- Name
  RoofCeiling,                            !- Surface Type
  ,                                       !- Construction Name
  {aec3050d-c52e-4f47-83ba-072629300cf1}, !- Space Name
  Surface,                                !- Outside Boundary Condition
  {e4d002eb-b8f1-4ef1-a29a-d01fe57294b3}, !- Outside Boundary Condition Object
  NoSun,                                  !- Sun Exposure
  NoWind,                                 !- Wind Exposure
  ,                                       !- View Factor to Ground
  ,                                       !- Number of Vertices
  4.57199999999995, 4.572, 3.9624,        !- X,Y,Z Vertex 1 {m}
  4.57199999999995, 21.6610071983116, 3.9624, !- X,Y,Z Vertex 2 {m}
  -4.9737991503207e-014, 26.2330071983116, 3.9624, !- X,Y,Z Vertex 3 {m}
  -4.9737991503207e-014, -1.4210854715202e-014, 3.9624; !- X,Y,Z Vertex 4 {m}

OS:ThermalZone,
  {8edf52cc-50c0-4199-9d42-01f99129eead}, !- Handle
  Zone West Perimeter Space - Story B1,   !- Name
  1,                                      !- Multiplier
  ,                                       !- Ceiling Height {m}
  ,                                       !- Volume {m3}
  ,                                       !- Floor Area {m2}
  ,                                       !- Zone Inside Convection Algorithm
  ,                                       !- Zone Outside Convection Algorithm
  ,                                       !- Zone Conditioning Equipment List Name
  {8a171b1e-e8ee-42c1-976f-0cc0f61a6ee2}, !- Zone Air Inlet Port List
  {9396cea1-3dc5-4325-962c-85162072b230}, !- Zone Air Exhaust Port List
  {bc06adc7-b162-4ab8-a073-84cb0811a686}, !- Zone Air Node Name
  {3c9907fb-93b8-4a6c-abd1-c4ab169a6875}, !- Zone Return Air Port List
  ,                                       !- Primary Daylighting Control Name
  ,                                       !- Fraction of Zone Controlled by Primary Daylighting Control
  ,                                       !- Secondary Daylighting Control Name
  ,                                       !- Fraction of Zone Controlled by Secondary Daylighting Control
  ,                                       !- Illuminance Map Name
  ,                                       !- Group Rendering Name
  ,                                       !- Thermostat Name
  No;                                     !- Use Ideal Air Loads

OS:Node,
  {49b7983d-7b77-4d0f-937e-ac4a9ce77da0}, !- Handle
  Node 1,                                 !- Name
  {bc06adc7-b162-4ab8-a073-84cb0811a686}, !- Inlet Port
  ;                                       !- Outlet Port

OS:Connection,
  {bc06adc7-b162-4ab8-a073-84cb0811a686}, !- Handle
  {c1d20b91-6666-46d6-b07c-0e104edcc63b}, !- Name
  {8edf52cc-50c0-4199-9d42-01f99129eead}, !- Source Object
  11,                                     !- Outlet Port
  {49b7983d-7b77-4d0f-937e-ac4a9ce77da0}, !- Target Object
  2;                                      !- Inlet Port

OS:PortList,
  {8a171b1e-e8ee-42c1-976f-0cc0f61a6ee2}, !- Handle
  {06b8d059-f59e-49bf-aec2-3be4e0d5e759}, !- Name
  {8edf52cc-50c0-4199-9d42-01f99129eead}; !- HVAC Component

OS:PortList,
  {9396cea1-3dc5-4325-962c-85162072b230}, !- Handle
  {ec32b742-bce4-45cb-b94a-f5b42c3cef90}, !- Name
  {8edf52cc-50c0-4199-9d42-01f99129eead}; !- HVAC Component

OS:PortList,
  {3c9907fb-93b8-4a6c-abd1-c4ab169a6875}, !- Handle
  {ea3f3c3b-8d06-4b01-831f-4e75e76aa68e}, !- Name
  {8edf52cc-50c0-4199-9d42-01f99129eead}; !- HVAC Component

OS:Sizing:Zone,
  {83274065-f54d-4442-a66b-34f40be8225b}, !- Handle
  {8edf52cc-50c0-4199-9d42-01f99129eead}, !- Zone or ZoneList Name
  SupplyAirTemperature,                   !- Zone Cooling Design Supply Air Temperature Input Method
  14,                                     !- Zone Cooling Design Supply Air Temperature {C}
  11.11,                                  !- Zone Cooling Design Supply Air Temperature Difference {deltaC}
  SupplyAirTemperature,                   !- Zone Heating Design Supply Air Temperature Input Method
  40,                                     !- Zone Heating Design Supply Air Temperature {C}
  11.11,                                  !- Zone Heating Design Supply Air Temperature Difference {deltaC}
  0.0085,                                 !- Zone Cooling Design Supply Air Humidity Ratio {kg-H2O/kg-air}
  0.008,                                  !- Zone Heating Design Supply Air Humidity Ratio {kg-H2O/kg-air}
  ,                                       !- Zone Heating Sizing Factor
  ,                                       !- Zone Cooling Sizing Factor
  DesignDay,                              !- Cooling Design Air Flow Method
  ,                                       !- Cooling Design Air Flow Rate {m3/s}
  ,                                       !- Cooling Minimum Air Flow per Zone Floor Area {m3/s-m2}
  ,                                       !- Cooling Minimum Air Flow {m3/s}
  ,                                       !- Cooling Minimum Air Flow Fraction
  DesignDay,                              !- Heating Design Air Flow Method
  ,                                       !- Heating Design Air Flow Rate {m3/s}
  ,                                       !- Heating Maximum Air Flow per Zone Floor Area {m3/s-m2}
  ,                                       !- Heating Maximum Air Flow {m3/s}
  ,                                       !- Heating Maximum Air Flow Fraction
  ,                                       !- Design Zone Air Distribution Effectiveness in Cooling Mode
  ,                                       !- Design Zone Air Distribution Effectiveness in Heating Mode
  No,                                     !- Account for Dedicated Outdoor Air System
  NeutralSupplyAir,                       !- Dedicated Outdoor Air System Control Strategy
  autosize,                               !- Dedicated Outdoor Air Low Setpoint Temperature for Design {C}
  autosize;                               !- Dedicated Outdoor Air High Setpoint Temperature for Design {C}

OS:ZoneHVAC:EquipmentList,
  {9f94344f-3602-485c-8da1-26d1585862f7}, !- Handle
  Zone HVAC Equipment List 1,             !- Name
  {8edf52cc-50c0-4199-9d42-01f99129eead}; !- Thermal Zone

OS:Space,
  {43fdd03f-d1ec-44be-a99c-cc102795eaf4}, !- Handle
  North Perimeter Space - Story B1,       !- Name
  ,                                       !- Space Type Name
  ,                                       !- Default Construction Set Name
  ,                                       !- Default Schedule Set Name
  -0,                                     !- Direction of Relative North {deg}
  -39.3495107974674,                      !- X Origin {m}
  13.1165035991558,                       !- Y Origin {m}
  -3.9624,                                !- Z Origin {m}
  {856da224-730e-4011-b7ea-88dd4138b369}, !- Building Story Name
  {90a5dfa6-c561-4e0f-a58c-ec964e7b857c}; !- Thermal Zone Name

OS:Surface,
  {89fb6198-5f13-4218-8946-738f318a4d2f}, !- Handle
  Surface 7,                              !- Name
  Floor,                                  !- Surface Type
  ,                                       !- Construction Name
  {43fdd03f-d1ec-44be-a99c-cc102795eaf4}, !- Space Name
  Ground,                                 !- Outside Boundary Condition
  ,                                       !- Outside Boundary Condition Object
  NoSun,                                  !- Sun Exposure
  NoWind,                                 !- Wind Exposure
  ,                                       !- View Factor to Ground
  ,                                       !- Number of Vertices
  -4.9737991503207e-014, 1.4210854715202e-014, 0, !- X,Y,Z Vertex 1 {m}
  78.6990215949347, 1.4210854715202e-014, 0, !- X,Y,Z Vertex 2 {m}
  74.1270215949347, -4.572, 0,            !- X,Y,Z Vertex 3 {m}
  4.57199999999995, -4.572, 0;            !- X,Y,Z Vertex 4 {m}

OS:Surface,
  {ac887266-3750-4d0e-8c31-9f08dfcd89ef}, !- Handle
  Surface 8,                              !- Name
  Wall,                                   !- Surface Type
  ,                                       !- Construction Name
  {43fdd03f-d1ec-44be-a99c-cc102795eaf4}, !- Space Name
  Ground,                                 !- Outside Boundary Condition
  ,                                       !- Outside Boundary Condition Object
  NoSun,                                  !- Sun Exposure
  NoWind,                                 !- Wind Exposure
  ,                                       !- View Factor to Ground
  ,                                       !- Number of Vertices
  78.6990215949347, 1.4210854715202e-014, 3.9624, !- X,Y,Z Vertex 1 {m}
  78.6990215949347, 1.4210854715202e-014, 0, !- X,Y,Z Vertex 2 {m}
  -4.9737991503207e-014, 1.4210854715202e-014, 0, !- X,Y,Z Vertex 3 {m}
  -4.9737991503207e-014, 1.4210854715202e-014, 3.9624; !- X,Y,Z Vertex 4 {m}

OS:Surface,
  {b7f76d2b-847b-4334-919a-6d062dd0d47c}, !- Handle
  Surface 9,                              !- Name
  Wall,                                   !- Surface Type
  ,                                       !- Construction Name
  {43fdd03f-d1ec-44be-a99c-cc102795eaf4}, !- Space Name
  Surface,                                !- Outside Boundary Condition
  {e4233967-9276-46f6-803f-31f53cba8460}, !- Outside Boundary Condition Object
  NoSun,                                  !- Sun Exposure
  NoWind,                                 !- Wind Exposure
  ,                                       !- View Factor to Ground
  ,                                       !- Number of Vertices
  74.1270215949347, -4.572, 3.9624,       !- X,Y,Z Vertex 1 {m}
  74.1270215949347, -4.572, 0,            !- X,Y,Z Vertex 2 {m}
  78.6990215949347, 1.4210854715202e-014, 0, !- X,Y,Z Vertex 3 {m}
  78.6990215949347, 1.4210854715202e-014, 3.9624; !- X,Y,Z Vertex 4 {m}

OS:Surface,
  {c9afe8c9-25f0-4555-b1da-58dec41a4ee9}, !- Handle
  Surface 10,                             !- Name
  Wall,                                   !- Surface Type
  ,                                       !- Construction Name
  {43fdd03f-d1ec-44be-a99c-cc102795eaf4}, !- Space Name
  Surface,                                !- Outside Boundary Condition
  {396587ea-5308-4cd3-a768-d4cd1e605302}, !- Outside Boundary Condition Object
  NoSun,                                  !- Sun Exposure
  NoWind,                                 !- Wind Exposure
  ,                                       !- View Factor to Ground
  ,                                       !- Number of Vertices
  4.57199999999995, -4.572, 3.9624,       !- X,Y,Z Vertex 1 {m}
  4.57199999999995, -4.572, 0,            !- X,Y,Z Vertex 2 {m}
  74.1270215949347, -4.572, 0,            !- X,Y,Z Vertex 3 {m}
  74.1270215949347, -4.572, 3.9624;       !- X,Y,Z Vertex 4 {m}

OS:Surface,
  {5e4382b1-9828-448a-8d22-7fff480867f5}, !- Handle
  Surface 11,                             !- Name
  Wall,                                   !- Surface Type
  ,                                       !- Construction Name
  {43fdd03f-d1ec-44be-a99c-cc102795eaf4}, !- Space Name
  Surface,                                !- Outside Boundary Condition
  {4046d926-8967-42e4-952c-eccf2bf580b6}, !- Outside Boundary Condition Object
  NoSun,                                  !- Sun Exposure
  NoWind,                                 !- Wind Exposure
  ,                                       !- View Factor to Ground
  ,                                       !- Number of Vertices
  -4.9737991503207e-014, 1.4210854715202e-014, 3.9624, !- X,Y,Z Vertex 1 {m}
  -4.9737991503207e-014, 1.4210854715202e-014, 0, !- X,Y,Z Vertex 2 {m}
  4.57199999999995, -4.572, 0,            !- X,Y,Z Vertex 3 {m}
  4.57199999999995, -4.572, 3.9624;       !- X,Y,Z Vertex 4 {m}

OS:Surface,
  {daa6055f-12e4-4eb3-aafb-054b300fd6ad}, !- Handle
  Surface 12,                             !- Name
  RoofCeiling,                            !- Surface Type
  ,                                       !- Construction Name
  {43fdd03f-d1ec-44be-a99c-cc102795eaf4}, !- Space Name
  Surface,                                !- Outside Boundary Condition
  {3552c5e8-ac78-4134-b942-68a5ee5471da}, !- Outside Boundary Condition Object
  NoSun,                                  !- Sun Exposure
  NoWind,                                 !- Wind Exposure
  ,                                       !- View Factor to Ground
  ,                                       !- Number of Vertices
  4.57199999999995, -4.572, 3.9624,       !- X,Y,Z Vertex 1 {m}