
OS:Version,
  {a9a59cb6-6366-4c69-860d-9a784f22ab01}, !- Handle
  2.7.2;                                  !- Version Identifier

OS:SpaceType,
  {a5c9530a-7847-4e98-87af-7fbbdb5470c8}, !- Handle
  PrimarySchool Cafeteria,                !- Name
  ,                                       !- Default Construction Set Name
  ,                                       !- Default Schedule Set Name
  {5ab0d5e1-8293-4f51-942a-dfb6000ec75a}, !- Group Rendering Name
  ,                                       !- Design Specification Outdoor Air Object Name
  ,                                       !- Standards Template
  PrimarySchool,                          !- Standards Building Type
  Cafeteria;                              !- Standards Space Type

OS:Rendering:Color,
  {5ab0d5e1-8293-4f51-942a-dfb6000ec75a}, !- Handle
  PrimarySchool Cafeteria,                !- Name
  31,                                     !- Rendering Red Value
  169,                                    !- Rendering Green Value
  34;                                     !- Rendering Blue Value

OS:SpaceType,
  {9bd1c9f0-61ad-40fc-abf9-4706542199e9}, !- Handle
  PrimarySchool Classroom,                !- Name
  ,                                       !- Default Construction Set Name
  ,                                       !- Default Schedule Set Name
  {d2d9b68c-7694-4af7-a70d-5c721b4c6786}, !- Group Rendering Name
  ,                                       !- Design Specification Outdoor Air Object Name
  ,                                       !- Standards Template
  PrimarySchool,                          !- Standards Building Type
  Classroom;                              !- Standards Space Type

OS:Rendering:Color,
  {d2d9b68c-7694-4af7-a70d-5c721b4c6786}, !- Handle
  PrimarySchool Classroom,                !- Name
  120,                                    !- Rendering Red Value
  230,                                    !- Rendering Green Value
  199;                                    !- Rendering Blue Value

OS:SpaceType,
  {7dfa8518-015e-4639-be89-ed72c380d3cc}, !- Handle
  PrimarySchool Corridor,                 !- Name
  ,                                       !- Default Construction Set Name
  ,                                       !- Default Schedule Set Name
  {6fbe1562-37c1-4aa2-b5a2-06502fc244b1}, !- Group Rendering Name
  ,                                       !- Design Specification Outdoor Air Object Name
  ,                                       !- Standards Template
  PrimarySchool,                          !- Standards Building Type
  Corridor;                               !- Standards Space Type

OS:Rendering:Color,
  {6fbe1562-37c1-4aa2-b5a2-06502fc244b1}, !- Handle
  PrimarySchool Corridor,                 !- Name
  169,                                    !- Rendering Red Value
  31,                                     !- Rendering Green Value
  31;                                     !- Rendering Blue Value

OS:SpaceType,
  {622556c9-0f7b-4e40-80b0-4b644e18117c}, !- Handle
  PrimarySchool Gym,                      !- Name
  ,                                       !- Default Construction Set Name
  ,                                       !- Default Schedule Set Name
  {8a542691-d239-45aa-a1ce-f665728324c1}, !- Group Rendering Name
  ,                                       !- Design Specification Outdoor Air Object Name
  ,                                       !- Standards Template
  PrimarySchool,                          !- Standards Building Type
  Gym;                                    !- Standards Space Type

OS:Rendering:Color,
  {8a542691-d239-45aa-a1ce-f665728324c1}, !- Handle
  PrimarySchool Gym,                      !- Name
  154,                                    !- Rendering Red Value
  230,                                    !- Rendering Green Value
  120;                                    !- Rendering Blue Value

OS:SpaceType,
  {01a04cfb-ed60-4ebd-a43b-794839ef4496}, !- Handle
  PrimarySchool Kitchen,                  !- Name
  ,                                       !- Default Construction Set Name
  ,                                       !- Default Schedule Set Name
  {46142a90-775f-44d5-af6d-ae177ce5f8b9}, !- Group Rendering Name
  ,                                       !- Design Specification Outdoor Air Object Name
  ,                                       !- Standards Template
  PrimarySchool,                          !- Standards Building Type
  Kitchen;                                !- Standards Space Type

OS:Rendering:Color,
  {46142a90-775f-44d5-af6d-ae177ce5f8b9}, !- Handle
  PrimarySchool Kitchen,                  !- Name
  78,                                     !- Rendering Red Value
  222,                                    !- Rendering Green Value
  133;                                    !- Rendering Blue Value

OS:SpaceType,
  {c134c887-1afa-4009-af62-3bc0bdd3e858}, !- Handle
  PrimarySchool Library,                  !- Name
  ,                                       !- Default Construction Set Name
  ,                                       !- Default Schedule Set Name
  {c1b61e41-e7f9-4b00-a2c5-ad8c702d861d}, !- Group Rendering Name
  ,                                       !- Design Specification Outdoor Air Object Name
  ,                                       !- Standards Template
  PrimarySchool,                          !- Standards Building Type
  Library;                                !- Standards Space Type

OS:Rendering:Color,
  {c1b61e41-e7f9-4b00-a2c5-ad8c702d861d}, !- Handle
  PrimarySchool Library,                  !- Name
  230,                                    !- Rendering Red Value
  196,                                    !- Rendering Green Value
  120;                                    !- Rendering Blue Value

OS:SpaceType,
  {14367bed-d6f1-48ed-93d8-990cb935a7fe}, !- Handle
  PrimarySchool Lobby,                    !- Name
  ,                                       !- Default Construction Set Name
  ,                                       !- Default Schedule Set Name
  {532d3927-d2a1-4647-aa23-7c476f95382a}, !- Group Rendering Name
  ,                                       !- Design Specification Outdoor Air Object Name
  ,                                       !- Standards Template
  PrimarySchool,                          !- Standards Building Type
  Lobby;                                  !- Standards Space Type

OS:Rendering:Color,
  {532d3927-d2a1-4647-aa23-7c476f95382a}, !- Handle
  PrimarySchool Lobby,                    !- Name
  230,                                    !- Rendering Red Value
  157,                                    !- Rendering Green Value
  120;                                    !- Rendering Blue Value

OS:SpaceType,
  {e50cbf28-8182-48f5-89a0-e7eb2fada8b9}, !- Handle
  PrimarySchool Mechanical,               !- Name
  ,                                       !- Default Construction Set Name
  ,                                       !- Default Schedule Set Name
  {1b1244e3-6705-4c8b-950c-e60d46e1a4fc}, !- Group Rendering Name
  ,                                       !- Design Specification Outdoor Air Object Name
  ,                                       !- Standards Template
  PrimarySchool,                          !- Standards Building Type
  Mechanical;                             !- Standards Space Type

OS:Rendering:Color,
  {1b1244e3-6705-4c8b-950c-e60d46e1a4fc}, !- Handle
  PrimarySchool Mechanical,               !- Name
  41,                                     !- Rendering Red Value
  31,                                     !- Rendering Green Value
  169;                                    !- Rendering Blue Value

OS:SpaceType,
  {39b716af-f807-44f4-8ddf-f9bf2945f79c}, !- Handle
  PrimarySchool Office,                   !- Name
  ,                                       !- Default Construction Set Name
  ,                                       !- Default Schedule Set Name
  {4daa6c60-fcde-4d29-93ec-1ac0f9f4589e}, !- Group Rendering Name
  ,                                       !- Design Specification Outdoor Air Object Name
  ,                                       !- Standards Template
  PrimarySchool,                          !- Standards Building Type
  Office;                                 !- Standards Space Type

OS:Rendering:Color,
  {4daa6c60-fcde-4d29-93ec-1ac0f9f4589e}, !- Handle
  PrimarySchool Office,                   !- Name
  120,                                    !- Rendering Red Value
  230,                                    !- Rendering Green Value
  199;                                    !- Rendering Blue Value

OS:SpaceType,
  {6d3f84ca-860f-4790-afdd-7fe79c0f444f}, !- Handle
  PrimarySchool Restroom,                 !- Name
  ,                                       !- Default Construction Set Name
  ,                                       !- Default Schedule Set Name
  {11257508-fdaf-4365-a663-4648d95fcb63}, !- Group Rendering Name
  ,                                       !- Design Specification Outdoor Air Object Name
  ,                                       !- Standards Template
  PrimarySchool,                          !- Standards Building Type
  Restroom;                               !- Standards Space Type

OS:Rendering:Color,
  {11257508-fdaf-4365-a663-4648d95fcb63}, !- Handle
  PrimarySchool Restroom,                 !- Name
  169,                                    !- Rendering Red Value
  169,                                    !- Rendering Green Value
  31;                                     !- Rendering Blue Value

OS:Building,
  {01206ffc-0866-432a-aedd-eb63cde4b62b}, !- Handle
  90.1-2004|PrimarySchool,                !- Name
  ,                                       !- Building Sector Type
  ,                                       !- North Axis {deg}
  ,                                       !- Nominal Floor to Floor Height {m}
  ,                                       !- Space Type Name
  ,                                       !- Default Construction Set Name
  ;                                       !- Default Schedule Set Name

OS:Site,
  {cb4d78a9-5668-4b15-a7d5-fb9c3cd662b7}, !- Handle
  Site 1,                                 !- Name
  ,                                       !- Latitude {deg}
  ,                                       !- Longitude {deg}
  ,                                       !- Time Zone {hr}
  ,                                       !- Elevation {m}
  ;                                       !- Terrain

OS:BuildingStory,
  {353114f3-1db7-49a3-8c9a-5517af79a07a}, !- Handle
  Story Ground,                           !- Name
  0,                                      !- Nominal Z Coordinate {m}
  3.9624,                                 !- Nominal Floor to Floor Height {m}
  ,                                       !- Default Construction Set Name
  ,                                       !- Default Schedule Set Name
  ;                                       !- Group Rendering Name

OS:Space,
  {cb86a4e7-81d2-499f-954a-d4a3cd1a31e1}, !- Handle
  PrimarySchool Corridor A end_a - Story Ground, !- Name
  {7dfa8518-015e-4639-be89-ed72c380d3cc}, !- Space Type Name
  ,                                       !- Default Construction Set Name
  ,                                       !- Default Schedule Set Name
  -0,                                     !- Direction of Relative North {deg}
  -13.1982271536748,                      !- X Origin {m}
  -8.7988181024499,                       !- Y Origin {m}
  0,                                      !- Z Origin {m}
  {353114f3-1db7-49a3-8c9a-5517af79a07a}, !- Building Story Name
  {9c24e68a-91bd-48ed-8b7b-37af6c691228}; !- Thermal Zone Name

OS:Surface,
  {9e631ffc-8fc2-46aa-ba9e-eacb5734ceca}, !- Handle
  Surface 1,                              !- Name
  Floor,                                  !- Surface Type
  ,                                       !- Construction Name
  {cb86a4e7-81d2-499f-954a-d4a3cd1a31e1}, !- Space Name
  Ground,                                 !- Outside Boundary Condition
  ,                                       !- Outside Boundary Condition Object
  NoSun,                                  !- Sun Exposure
  NoWind,                                 !- Wind Exposure
  ,                                       !- View Factor to Ground
  ,                                       !- Number of Vertices
  4.61852778244065e-014, -3.5527136788005e-015, 0, !- X,Y,Z Vertex 1 {m}
  4.61852778244065e-014, 4.572, 0,        !- X,Y,Z Vertex 2 {m}
  4.572, 4.572, 0,                        !- X,Y,Z Vertex 3 {m}
  4.572, -3.5527136788005e-015, 0;        !- X,Y,Z Vertex 4 {m}

OS:Surface,
  {d0cecd1a-59b7-4c7c-b9ce-43e1b28ca305}, !- Handle
  Surface 2,                              !- Name
  Wall,                                   !- Surface Type
  ,                                       !- Construction Name
  {cb86a4e7-81d2-499f-954a-d4a3cd1a31e1}, !- Space Name
  Outdoors,                               !- Outside Boundary Condition
  ,                                       !- Outside Boundary Condition Object
  SunExposed,                             !- Sun Exposure
  WindExposed,                            !- Wind Exposure
  ,                                       !- View Factor to Ground
  ,                                       !- Number of Vertices
  4.61852778244065e-014, 4.572, 3.9624,   !- X,Y,Z Vertex 1 {m}
  4.61852778244065e-014, 4.572, 0,        !- X,Y,Z Vertex 2 {m}
  4.61852778244065e-014, -3.5527136788005e-015, 0, !- X,Y,Z Vertex 3 {m}
  4.61852778244065e-014, -3.5527136788005e-015, 3.9624; !- X,Y,Z Vertex 4 {m}

OS:Surface,
  {ac3eeb0e-52fd-4460-8aa2-2972f1fb461c}, !- Handle
  Surface 3,                              !- Name
  Wall,                                   !- Surface Type
  ,                                       !- Construction Name
  {cb86a4e7-81d2-499f-954a-d4a3cd1a31e1}, !- Space Name
  Surface,                                !- Outside Boundary Condition
  {72113baf-6bbb-4156-866b-9c96d2b6e443}, !- Outside Boundary Condition Object
  NoSun,                                  !- Sun Exposure
  NoWind,                                 !- Wind Exposure
  ,                                       !- View Factor to Ground
  ,                                       !- Number of Vertices
  4.572, 4.572, 3.9624,                   !- X,Y,Z Vertex 1 {m}
  4.572, 4.572, 0,                        !- X,Y,Z Vertex 2 {m}
  4.61852778244065e-014, 4.572, 0,        !- X,Y,Z Vertex 3 {m}
  4.61852778244065e-014, 4.572, 3.9624;   !- X,Y,Z Vertex 4 {m}

OS:Surface,
  {d0de305d-d309-47a6-81dc-62351f3f9525}, !- Handle
  Surface 4,                              !- Name
  Wall,                                   !- Surface Type
  ,                                       !- Construction Name
  {cb86a4e7-81d2-499f-954a-d4a3cd1a31e1}, !- Space Name
  Surface,                                !- Outside Boundary Condition
  {e53d106b-6596-4ff4-b4cc-e763ea72bff8}, !- Outside Boundary Condition Object
  NoSun,                                  !- Sun Exposure
  NoWind,                                 !- Wind Exposure
  ,                                       !- View Factor to Ground
  ,                                       !- Number of Vertices
  4.572, -3.5527136788005e-015, 3.9624,   !- X,Y,Z Vertex 1 {m}
  4.572, -3.5527136788005e-015, 0,        !- X,Y,Z Vertex 2 {m}
  4.572, 4.572, 0,                        !- X,Y,Z Vertex 3 {m}
  4.572, 4.572, 3.9624;                   !- X,Y,Z Vertex 4 {m}

OS:Surface,
  {c1c2c5b4-e6d5-4e4d-bfd0-bebdb68d411e}, !- Handle
  Surface 5,                              !- Name
  Wall,                                   !- Surface Type
  ,                                       !- Construction Name
  {cb86a4e7-81d2-499f-954a-d4a3cd1a31e1}, !- Space Name
  Outdoors,                               !- Outside Boundary Condition
  ,                                       !- Outside Boundary Condition Object
  SunExposed,                             !- Sun Exposure
  WindExposed,                            !- Wind Exposure
  ,                                       !- View Factor to Ground
  ,                                       !- Number of Vertices
  4.61852778244065e-014, -3.5527136788005e-015, 3.9624, !- X,Y,Z Vertex 1 {m}
  4.61852778244065e-014, -3.5527136788005e-015, 0, !- X,Y,Z Vertex 2 {m}
  4.572, -3.5527136788005e-015, 0,        !- X,Y,Z Vertex 3 {m}
  4.572, -3.5527136788005e-015, 3.9624;   !- X,Y,Z Vertex 4 {m}

OS:Surface,
  {dc606fd4-cbfb-42da-a602-97cb6d36f750}, !- Handle
  Surface 6,                              !- Name
  RoofCeiling,                            !- Surface Type
  ,                                       !- Construction Name
  {cb86a4e7-81d2-499f-954a-d4a3cd1a31e1}, !- Space Name
  Surface,                                !- Outside Boundary Condition
  {cd892005-97e8-4497-bf93-01229f493b48}, !- Outside Boundary Condition Object
  NoSun,                                  !- Sun Exposure
  NoWind,                                 !- Wind Exposure
  ,                                       !- View Factor to Ground
  ,                                       !- Number of Vertices
  4.572, -3.5527136788005e-015, 3.9624,   !- X,Y,Z Vertex 1 {m}
  4.572, 4.572, 3.9624,                   !- X,Y,Z Vertex 2 {m}
  4.61852778244065e-014, 4.572, 3.9624,   !- X,Y,Z Vertex 3 {m}
  4.61852778244065e-014, -3.5527136788005e-015, 3.9624; !- X,Y,Z Vertex 4 {m}

OS:ThermalZone,
  {9c24e68a-91bd-48ed-8b7b-37af6c691228}, !- Handle
  Zone PrimarySchool Corridor A end_a - Story Ground, !- Name
  1,                                      !- Multiplier
  ,                                       !- Ceiling Height {m}
  ,                                       !- Volume {m3}
  ,                                       !- Floor Area {m2}
  ,                                       !- Zone Inside Convection Algorithm
  ,                                       !- Zone Outside Convection Algorithm
  ,                                       !- Zone Conditioning Equipment List Name
  {6e7d3732-e075-4681-ab83-20d64f641d41}, !- Zone Air Inlet Port List
  {2706eabe-5075-465b-8db4-d568a7916eaa}, !- Zone Air Exhaust Port List
  {e0cc17a3-f2f9-4a66-9ce0-72faf66219f5}, !- Zone Air Node Name
  {38d3c9b8-044f-4296-bee0-be604347b202}, !- Zone Return Air Port List
  ,                                       !- Primary Daylighting Control Name
  ,                                       !- Fraction of Zone Controlled by Primary Daylighting Control
  ,                                       !- Secondary Daylighting Control Name
  ,                                       !- Fraction of Zone Controlled by Secondary Daylighting Control
  ,                                       !- Illuminance Map Name
  ,                                       !- Group Rendering Name
  ,                                       !- Thermostat Name
  No;                                     !- Use Ideal Air Loads

OS:Node,
  {36ba7f70-5359-4d71-9eeb-16b2d97f85c3}, !- Handle
  Node 1,                                 !- Name
  {e0cc17a3-f2f9-4a66-9ce0-72faf66219f5}, !- Inlet Port
  ;                                       !- Outlet Port

OS:Connection,
  {e0cc17a3-f2f9-4a66-9ce0-72faf66219f5}, !- Handle
  {e20af78d-5870-4f4b-a5d9-00169416cd35}, !- Name
  {9c24e68a-91bd-48ed-8b7b-37af6c691228}, !- Source Object
  11,                                     !- Outlet Port
  {36ba7f70-5359-4d71-9eeb-16b2d97f85c3}, !- Target Object
  2;                                      !- Inlet Port

OS:PortList,
  {6e7d3732-e075-4681-ab83-20d64f641d41}, !- Handle
  {8e4b29ea-f20d-430f-b75f-59a5514688d1}, !- Name
  {9c24e68a-91bd-48ed-8b7b-37af6c691228}; !- HVAC Component

OS:PortList,
  {2706eabe-5075-465b-8db4-d568a7916eaa}, !- Handle
  {2132574f-3890-4929-a9db-62ff7fd58e38}, !- Name
  {9c24e68a-91bd-48ed-8b7b-37af6c691228}; !- HVAC Component

OS:PortList,
  {38d3c9b8-044f-4296-bee0-be604347b202}, !- Handle
  {21f940eb-92b6-43b6-b395-532c5edde67a}, !- Name
  {9c24e68a-91bd-48ed-8b7b-37af6c691228}; !- HVAC Component

OS:Sizing:Zone,
  {fdf4e35e-772e-4f6a-99eb-1cae484109cc}, !- Handle
  {9c24e68a-91bd-48ed-8b7b-37af6c691228}, !- Zone or ZoneList Name
  SupplyAirTemperature,                   !- Zone Cooling Design Supply Air Temperature Input Method
  14,                                     !- Zone Cooling Design Supply Air Temperature {C}
  11.11,                                  !- Zone Cooling Design Supply Air Temperature Difference {deltaC}
  SupplyAirTemperature,                   !- Zone Heating Design Supply Air Temperature Input Method
  40,                                     !- Zone Heating Design Supply Air Temperature {C}
  11.11,                                  !- Zone Heating Design Supply Air Temperature Difference {deltaC}
  0.0085,                                 !- Zone Cooling Design Supply Air Humidity Ratio {kg-H2O/kg-air}
  0.008,                                  !- Zone Heating Design Supply Air Humidity Ratio {kg-H2O/kg-air}
  ,                                       !- Zone Heating Sizing Factor
  ,                                       !- Zone Cooling Sizing Factor
  DesignDay,                              !- Cooling Design Air Flow Method
  ,                                       !- Cooling Design Air Flow Rate {m3/s}
  ,                                       !- Cooling Minimum Air Flow per Zone Floor Area {m3/s-m2}
  ,                                       !- Cooling Minimum Air Flow {m3/s}
  ,                                       !- Cooling Minimum Air Flow Fraction
  DesignDay,                              !- Heating Design Air Flow Method
  ,                                       !- Heating Design Air Flow Rate {m3/s}
  ,                                       !- Heating Maximum Air Flow per Zone Floor Area {m3/s-m2}
  ,                                       !- Heating Maximum Air Flow {m3/s}
  ,                                       !- Heating Maximum Air Flow Fraction
  ,                                       !- Design Zone Air Distribution Effectiveness in Cooling Mode
  ,                                       !- Design Zone Air Distribution Effectiveness in Heating Mode
  No,                                     !- Account for Dedicated Outdoor Air System
  NeutralSupplyAir,                       !- Dedicated Outdoor Air System Control Strategy
  autosize,                               !- Dedicated Outdoor Air Low Setpoint Temperature for Design {C}
  autosize;                               !- Dedicated Outdoor Air High Setpoint Temperature for Design {C}

OS:ZoneHVAC:EquipmentList,
  {bffd4052-efaa-4066-b09f-ca38554bafbe}, !- Handle
  Zone HVAC Equipment List 1,             !- Name
  {9c24e68a-91bd-48ed-8b7b-37af6c691228}; !- Thermal Zone

OS:Space,
  {95efba28-09b8-4447-b8b9-64b4bf799d11}, !- Handle
  PrimarySchool Corridor B end_a - Story Ground, !- Name
  {7dfa8518-015e-4639-be89-ed72c380d3cc}, !- Space Type Name
  ,                                       !- Default Construction Set Name
  ,                                       !- Default Schedule Set Name
  -0,                                     !- Direction of Relative North {deg}
  -13.1982271536748,                      !- X Origin {m}
  -4.2268181024499,                       !- Y Origin {m}
  0,                                      !- Z Origin {m}
  {353114f3-1db7-49a3-8c9a-5517af79a07a}, !- Building Story Name
  {81366f82-1d10-46d7-8cbe-797f103b05ea}; !- Thermal Zone Name

OS:Surface,
  {608047f1-c8e6-49f4-a0c9-561b1a809775}, !- Handle
  Surface 7,                              !- Name
  Floor,                                  !- Surface Type
  ,                                       !- Construction Name
  {95efba28-09b8-4447-b8b9-64b4bf799d11}, !- Space Name
  Ground,                                 !- Outside Boundary Condition
  ,                                       !- Outside Boundary Condition Object
  NoSun,                                  !- Sun Exposure
  NoWind,                                 !- Wind Exposure
  ,                                       !- View Factor to Ground
  ,                                       !- Number of Vertices
  4.61852778244065e-014, -3.5527136788005e-015, 0, !- X,Y,Z Vertex 1 {m}
  4.61852778244065e-014, 8.4536362048998, 0, !- X,Y,Z Vertex 2 {m}
  4.572, 8.4536362048998, 0,              !- X,Y,Z Vertex 3 {m}
  4.572, -3.5527136788005e-015, 0;        !- X,Y,Z Vertex 4 {m}

OS:Surface,
  {40cc4b15-9655-440a-b30b-bae2416ccbf0}, !- Handle
  Surface 8,                              !- Name
  Wall,                                   !- Surface Type
  ,                                       !- Construction Name
  {95efba28-09b8-4447-b8b9-64b4bf799d11}, !- Space Name
  Outdoors,                               !- Outside Boundary Condition
  ,                                       !- Outside Boundary Condition Object
  SunExposed,                             !- Sun Exposure
  WindExposed,                            !- Wind Exposure
  ,                                       !- View Factor to Ground
  ,                                       !- Number of Vertices
  4.61852778244065e-014, 8.4536362048998, 3.9624, !- X,Y,Z Vertex 1 {m}
  4.61852778244065e-014, 8.4536362048998, 0, !- X,Y,Z Vertex 2 {m}
  4.61852778244065e-014, -3.5527136788005e-015, 0, !- X,Y,Z Vertex 3 {m}
  4.61852778244065e-014, -3.5527136788005e-015, 3.9624; !- X,Y,Z Vertex 4 {m}

OS:Surface,
  {74ca2069-3da4-490c-bda6-d85c2d3204ef}, !- Handle
  Surface 9,                              !- Name
  Wall,                                   !- Surface Type
  ,                                       !- Construction Name
  {95efba28-09b8-4447-b8b9-64b4bf799d11}, !- Space Name
  Surface,                                !- Outside Boundary Condition
  {98e4b07a-43b4-479e-9b48-4cba77ff6873}, !- Outside Boundary Condition Object
  NoSun,                                  !- Sun Exposure
  NoWind,                                 !- Wind Exposure
  ,                                       !- View Factor to Ground
  ,                                       !- Number of Vertices
  4.572, 8.4536362048998, 3.9624,         !- X,Y,Z Vertex 1 {m}
  4.572, 8.4536362048998, 0,              !- X,Y,Z Vertex 2 {m}
  4.61852778244065e-014, 8.4536362048998, 0, !- X,Y,Z Vertex 3 {m}
  4.61852778244065e-014, 8.4536362048998, 3.9624; !- X,Y,Z Vertex 4 {m}

OS:Surface,
  {665ec264-2f2e-4a54-bd61-490fb14b54c8}, !- Handle
  Surface 10,                             !- Name
  Wall,                                   !- Surface Type
  ,                                       !- Construction Name
  {95efba28-09b8-4447-b8b9-64b4bf799d11}, !- Space Name
  Surface,                                !- Outside Boundary Condition
  {89ca2e95-db74-4758-a2db-aa6f89d6dffc}, !- Outside Boundary Condition Object
  NoSun,                                  !- Sun Exposure
  NoWind,                                 !- Wind Exposure
  ,                                       !- View Factor to Ground
  ,                                       !- Number of Vertices
  4.572, -3.5527136788005e-015, 3.9624,   !- X,Y,Z Vertex 1 {m}
  4.572, -3.5527136788005e-015, 0,        !- X,Y,Z Vertex 2 {m}
  4.572, 8.4536362048998, 0,              !- X,Y,Z Vertex 3 {m}
  4.572, 8.4536362048998, 3.9624;         !- X,Y,Z Vertex 4 {m}

OS:Surface,
  {72113baf-6bbb-4156-866b-9c96d2b6e443}, !- Handle
  Surface 11,                             !- Name
  Wall,                                   !- Surface Type
  ,                                       !- Construction Name
  {95efba28-09b8-4447-b8b9-64b4bf799d11}, !- Space Name
  Surface,                                !- Outside Boundary Condition
  {ac3eeb0e-52fd-4460-8aa2-2972f1fb461c}, !- Outside Boundary Condition Object
  NoSun,                                  !- Sun Exposure
  NoWind,                                 !- Wind Exposure
  ,                                       !- View Factor to Ground
  ,                                       !- Number of Vertices
  4.61852778244065e-014, -3.5527136788005e-015, 3.9624, !- X,Y,Z Vertex 1 {m}
  4.61852778244065e-014, -3.5527136788005e-015, 0, !- X,Y,Z Vertex 2 {m}
  4.572, -3.5527136788005e-015, 0,        !- X,Y,Z Vertex 3 {m}
  4.572, -3.5527136788005e-015, 3.9624;   !- X,Y,Z Vertex 4 {m}

OS:Surface,
  {769771ee-1e0e-4325-93a9-7e5ac3ace6d7}, !- Handle
  Surface 12,                             !- Name
  RoofCeiling,                            !- Surface Type
  ,                                       !- Construction Name
  {95efba28-09b8-4447-b8b9-64b4bf799d11}, !- Space Name
  Surface,                                !- Outside Boundary Condition
  {0ef34de3-2d31-43c0-86ba-a12fed236930}, !- Outside Boundary Condition Object
  NoSun,                                  !- Sun Exposure
  NoWind,                                 !- Wind Exposure
  ,                                       !- View Factor to Ground
  ,                                       !- Number of Vertices
  4.572, -3.5527136788005e-015, 3.9624,   !- X,Y,Z Vertex 1 {m}
  4.572, 8.4536362048998, 3.9624,         !- X,Y,Z Vertex 2 {m}
  4.61852778244065e-014, 8.4536362048998, 3.9624, !- X,Y,Z Vertex 3 {m}
  4.61852778244065e-014, -3.5527136788005e-015, 3.9624; !- X,Y,Z Vertex 4 {m}

OS:ThermalZone,
  {81366f82-1d10-46d7-8cbe-797f103b05ea}, !- Handle
  Zone PrimarySchool Corridor B end_a - Story Ground, !- Name
  1,                                      !- Multiplier
  ,                                       !- Ceiling Height {m}
  ,                                       !- Volume {m3}
  ,                                       !- Floor Area {m2}
  ,                                       !- Zone Inside Convection Algorithm
  ,                                       !- Zone Outside Convection Algorithm
  ,                                       !- Zone Conditioning Equipment List Name
  {d1812519-c23e-4315-98b7-680fa39a65ba}, !- Zone Air Inlet Port List
  {53f545f4-a9bc-49c8-8d63-a4d08f89f2b9}, !- Zone Air Exhaust Port List