
OS:Version,
  {6a9118a5-69a2-4197-933a-e0d6dd050afb}, !- Handle
  2.7.2;                                  !- Version Identifier

OS:SpaceType,
  {35ed00b8-e9e3-4bf9-bbcd-8b425769905e}, !- Handle
  PrimarySchool Cafeteria,                !- Name
  ,                                       !- Default Construction Set Name
  ,                                       !- Default Schedule Set Name
  {269b198b-2a5c-4b39-ac8d-fa39e727202f}, !- Group Rendering Name
  ,                                       !- Design Specification Outdoor Air Object Name
  ,                                       !- Standards Template
  PrimarySchool,                          !- Standards Building Type
  Cafeteria;                              !- Standards Space Type

OS:Rendering:Color,
  {269b198b-2a5c-4b39-ac8d-fa39e727202f}, !- Handle
  PrimarySchool Cafeteria,                !- Name
  31,                                     !- Rendering Red Value
  169,                                    !- Rendering Green Value
  34;                                     !- Rendering Blue Value

OS:SpaceType,
  {f3707144-4113-4d7e-b953-8f164365b637}, !- Handle
  PrimarySchool Classroom,                !- Name
  ,                                       !- Default Construction Set Name
  ,                                       !- Default Schedule Set Name
  {21a0d448-3914-4902-8cf1-8e7a3e6c8c54}, !- Group Rendering Name
  ,                                       !- Design Specification Outdoor Air Object Name
  ,                                       !- Standards Template
  PrimarySchool,                          !- Standards Building Type
  Classroom;                              !- Standards Space Type

OS:Rendering:Color,
  {21a0d448-3914-4902-8cf1-8e7a3e6c8c54}, !- Handle
  PrimarySchool Classroom,                !- Name
  120,                                    !- Rendering Red Value
  230,                                    !- Rendering Green Value
  199;                                    !- Rendering Blue Value

OS:SpaceType,
  {20693b21-30e8-46ed-b8bd-c0ddee49db3e}, !- Handle
  PrimarySchool Corridor,                 !- Name
  ,                                       !- Default Construction Set Name
  ,                                       !- Default Schedule Set Name
  {dce0d5c7-a8d3-44a0-ac19-6c9d41c96367}, !- Group Rendering Name
  ,                                       !- Design Specification Outdoor Air Object Name
  ,                                       !- Standards Template
  PrimarySchool,                          !- Standards Building Type
  Corridor;                               !- Standards Space Type

OS:Rendering:Color,
  {dce0d5c7-a8d3-44a0-ac19-6c9d41c96367}, !- Handle
  PrimarySchool Corridor,                 !- Name
  169,                                    !- Rendering Red Value
  31,                                     !- Rendering Green Value
  31;                                     !- Rendering Blue Value

OS:SpaceType,
  {10121187-85eb-439c-a1b2-07deef3728bb}, !- Handle
  PrimarySchool Gym,                      !- Name
  ,                                       !- Default Construction Set Name
  ,                                       !- Default Schedule Set Name
  {3f69fe2b-4866-4163-a394-8680179c7ee8}, !- Group Rendering Name
  ,                                       !- Design Specification Outdoor Air Object Name
  ,                                       !- Standards Template
  PrimarySchool,                          !- Standards Building Type
  Gym;                                    !- Standards Space Type

OS:Rendering:Color,
  {3f69fe2b-4866-4163-a394-8680179c7ee8}, !- Handle
  PrimarySchool Gym,                      !- Name
  154,                                    !- Rendering Red Value
  230,                                    !- Rendering Green Value
  120;                                    !- Rendering Blue Value

OS:SpaceType,
  {0e1c11a7-a113-48f9-b714-6763e9873008}, !- Handle
  PrimarySchool Kitchen,                  !- Name
  ,                                       !- Default Construction Set Name
  ,                                       !- Default Schedule Set Name
  {071eb506-333d-4069-9002-8c4d4ff04d61}, !- Group Rendering Name
  ,                                       !- Design Specification Outdoor Air Object Name
  ,                                       !- Standards Template
  PrimarySchool,                          !- Standards Building Type
  Kitchen;                                !- Standards Space Type

OS:Rendering:Color,
  {071eb506-333d-4069-9002-8c4d4ff04d61}, !- Handle
  PrimarySchool Kitchen,                  !- Name
  78,                                     !- Rendering Red Value
  222,                                    !- Rendering Green Value
  133;                                    !- Rendering Blue Value

OS:SpaceType,
  {1ad9ab3a-a5e7-441d-81c5-2ec1f8b75bd2}, !- Handle
  PrimarySchool Library,                  !- Name
  ,                                       !- Default Construction Set Name
  ,                                       !- Default Schedule Set Name
  {c7d12f2f-0fb4-4677-8399-4ce9a514db12}, !- Group Rendering Name
  ,                                       !- Design Specification Outdoor Air Object Name
  ,                                       !- Standards Template
  PrimarySchool,                          !- Standards Building Type
  Library;                                !- Standards Space Type

OS:Rendering:Color,
  {c7d12f2f-0fb4-4677-8399-4ce9a514db12}, !- Handle
  PrimarySchool Library,                  !- Name
  230,                                    !- Rendering Red Value
  196,                                    !- Rendering Green Value
  120;                                    !- Rendering Blue Value

OS:SpaceType,
  {c21c3cc5-a2a0-4d6a-b73f-30045f0ec3f5}, !- Handle
  PrimarySchool Lobby,                    !- Name
  ,                                       !- Default Construction Set Name
  ,                                       !- Default Schedule Set Name
  {6c461e7b-44d0-4595-9f20-6ce6ee8e5b3d}, !- Group Rendering Name
  ,                                       !- Design Specification Outdoor Air Object Name
  ,                                       !- Standards Template
  PrimarySchool,                          !- Standards Building Type
  Lobby;                                  !- Standards Space Type

OS:Rendering:Color,
  {6c461e7b-44d0-4595-9f20-6ce6ee8e5b3d}, !- Handle
  PrimarySchool Lobby,                    !- Name
  230,                                    !- Rendering Red Value
  157,                                    !- Rendering Green Value
  120;                                    !- Rendering Blue Value

OS:SpaceType,
  {e59d4c9f-18c2-4cc8-a557-5d844c47726c}, !- Handle
  PrimarySchool Mechanical,               !- Name
  ,                                       !- Default Construction Set Name
  ,                                       !- Default Schedule Set Name
  {9642a81f-e9aa-4621-a54e-19e7dd12bc4b}, !- Group Rendering Name
  ,                                       !- Design Specification Outdoor Air Object Name
  ,                                       !- Standards Template
  PrimarySchool,                          !- Standards Building Type
  Mechanical;                             !- Standards Space Type

OS:Rendering:Color,
  {9642a81f-e9aa-4621-a54e-19e7dd12bc4b}, !- Handle
  PrimarySchool Mechanical,               !- Name
  41,                                     !- Rendering Red Value
  31,                                     !- Rendering Green Value
  169;                                    !- Rendering Blue Value

OS:SpaceType,
  {21ba5363-ca51-4243-8a69-d4c4eb629230}, !- Handle
  PrimarySchool Office,                   !- Name
  ,                                       !- Default Construction Set Name
  ,                                       !- Default Schedule Set Name
  {74dace20-c962-4bbd-9788-b710ae045aa8}, !- Group Rendering Name
  ,                                       !- Design Specification Outdoor Air Object Name
  ,                                       !- Standards Template
  PrimarySchool,                          !- Standards Building Type
  Office;                                 !- Standards Space Type

OS:Rendering:Color,
  {74dace20-c962-4bbd-9788-b710ae045aa8}, !- Handle
  PrimarySchool Office,                   !- Name
  120,                                    !- Rendering Red Value
  230,                                    !- Rendering Green Value
  199;                                    !- Rendering Blue Value

OS:SpaceType,
  {98409d02-61d6-4c25-a19a-9a3eec3f1d77}, !- Handle
  PrimarySchool Restroom,                 !- Name
  ,                                       !- Default Construction Set Name
  ,                                       !- Default Schedule Set Name
  {bee627ab-7317-4cc2-95f1-91428a22137f}, !- Group Rendering Name
  ,                                       !- Design Specification Outdoor Air Object Name
  ,                                       !- Standards Template
  PrimarySchool,                          !- Standards Building Type
  Restroom;                               !- Standards Space Type

OS:Rendering:Color,
  {bee627ab-7317-4cc2-95f1-91428a22137f}, !- Handle
  PrimarySchool Restroom,                 !- Name
  169,                                    !- Rendering Red Value
  169,                                    !- Rendering Green Value
  31;                                     !- Rendering Blue Value

OS:Building,
  {aeaa996e-90ff-4920-b961-a6350e5a0852}, !- Handle
  90.1-2004|PrimarySchool,                !- Name
  ,                                       !- Building Sector Type
  ,                                       !- North Axis {deg}
  ,                                       !- Nominal Floor to Floor Height {m}
  ,                                       !- Space Type Name
  ,                                       !- Default Construction Set Name
  ;                                       !- Default Schedule Set Name

OS:Site,
  {44bf1507-a536-46b6-ae49-c6d9fe492938}, !- Handle
  Site 1,                                 !- Name
  ,                                       !- Latitude {deg}
  ,                                       !- Longitude {deg}
  ,                                       !- Time Zone {hr}
  ,                                       !- Elevation {m}
  ;                                       !- Terrain

OS:BuildingStory,
  {fcb13407-e9b5-47ba-9151-a7465d2644d5}, !- Handle
  Story Ground,                           !- Name
  0,                                      !- Nominal Z Coordinate {m}
  3.9624,                                 !- Nominal Floor to Floor Height {m}
  ,                                       !- Default Construction Set Name
  ,                                       !- Default Schedule Set Name
  ;                                       !- Group Rendering Name

OS:Space,
  {399325c1-1c2e-4101-935f-75c57e4b4c1c}, !- Handle
  PrimarySchool Corridor A end_a - Story Ground, !- Name
  {20693b21-30e8-46ed-b8bd-c0ddee49db3e}, !- Space Type Name
  ,                                       !- Default Construction Set Name
  ,                                       !- Default Schedule Set Name
  -0,                                     !- Direction of Relative North {deg}
  -13.1982271536748,                      !- X Origin {m}
  -8.7988181024499,                       !- Y Origin {m}
  0,                                      !- Z Origin {m}
  {fcb13407-e9b5-47ba-9151-a7465d2644d5}, !- Building Story Name
  {ea5bf0aa-20ad-4629-bcc3-e0422d7d7c41}; !- Thermal Zone Name

OS:Surface,
  {f68197e8-f24e-4df7-a3d9-51c0c02580cc}, !- Handle
  Surface 1,                              !- Name
  Floor,                                  !- Surface Type
  ,                                       !- Construction Name
  {399325c1-1c2e-4101-935f-75c57e4b4c1c}, !- Space Name
  Ground,                                 !- Outside Boundary Condition
  ,                                       !- Outside Boundary Condition Object
  NoSun,                                  !- Sun Exposure
  NoWind,                                 !- Wind Exposure
  ,                                       !- View Factor to Ground
  ,                                       !- Number of Vertices
  4.61852778244065e-014, -3.5527136788005e-015, 0, !- X,Y,Z Vertex 1 {m}
  4.61852778244065e-014, 4.572, 0,        !- X,Y,Z Vertex 2 {m}
  4.572, 4.572, 0,                        !- X,Y,Z Vertex 3 {m}
  4.572, -3.5527136788005e-015, 0;        !- X,Y,Z Vertex 4 {m}

OS:Surface,
  {78033e42-4d77-4f34-9842-8e775147795d}, !- Handle
  Surface 2,                              !- Name
  Wall,                                   !- Surface Type
  ,                                       !- Construction Name
  {399325c1-1c2e-4101-935f-75c57e4b4c1c}, !- Space Name
  Outdoors,                               !- Outside Boundary Condition
  ,                                       !- Outside Boundary Condition Object
  SunExposed,                             !- Sun Exposure
  WindExposed,                            !- Wind Exposure
  ,                                       !- View Factor to Ground
  ,                                       !- Number of Vertices
  4.61852778244065e-014, 4.572, 3.9624,   !- X,Y,Z Vertex 1 {m}
  4.61852778244065e-014, 4.572, 0,        !- X,Y,Z Vertex 2 {m}
  4.61852778244065e-014, -3.5527136788005e-015, 0, !- X,Y,Z Vertex 3 {m}
  4.61852778244065e-014, -3.5527136788005e-015, 3.9624; !- X,Y,Z Vertex 4 {m}

OS:Surface,
  {3edbd166-14eb-4b03-b397-05a0462a9616}, !- Handle
  Surface 3,                              !- Name
  Wall,                                   !- Surface Type
  ,                                       !- Construction Name
  {399325c1-1c2e-4101-935f-75c57e4b4c1c}, !- Space Name
  Surface,                                !- Outside Boundary Condition
  {c090fe54-19de-41c7-87b9-9441562cd623}, !- Outside Boundary Condition Object
  NoSun,                                  !- Sun Exposure
  NoWind,                                 !- Wind Exposure
  ,                                       !- View Factor to Ground
  ,                                       !- Number of Vertices
  4.572, 4.572, 3.9624,                   !- X,Y,Z Vertex 1 {m}
  4.572, 4.572, 0,                        !- X,Y,Z Vertex 2 {m}
  4.61852778244065e-014, 4.572, 0,        !- X,Y,Z Vertex 3 {m}
  4.61852778244065e-014, 4.572, 3.9624;   !- X,Y,Z Vertex 4 {m}

OS:Surface,
  {df8c0093-8073-4775-ab88-e56db4657ad5}, !- Handle
  Surface 4,                              !- Name
  Wall,                                   !- Surface Type
  ,                                       !- Construction Name
  {399325c1-1c2e-4101-935f-75c57e4b4c1c}, !- Space Name
  Surface,                                !- Outside Boundary Condition
  {40129449-bacc-44d8-aaa8-be9ba150692c}, !- Outside Boundary Condition Object
  NoSun,                                  !- Sun Exposure
  NoWind,                                 !- Wind Exposure
  ,                                       !- View Factor to Ground
  ,                                       !- Number of Vertices
  4.572, -3.5527136788005e-015, 3.9624,   !- X,Y,Z Vertex 1 {m}
  4.572, -3.5527136788005e-015, 0,        !- X,Y,Z Vertex 2 {m}
  4.572, 4.572, 0,                        !- X,Y,Z Vertex 3 {m}
  4.572, 4.572, 3.9624;                   !- X,Y,Z Vertex 4 {m}

OS:Surface,
  {0ae1cf80-ef9b-462a-a3dd-7d6ef0b2049c}, !- Handle
  Surface 5,                              !- Name
  Wall,                                   !- Surface Type
  ,                                       !- Construction Name
  {399325c1-1c2e-4101-935f-75c57e4b4c1c}, !- Space Name
  Outdoors,                               !- Outside Boundary Condition
  ,                                       !- Outside Boundary Condition Object
  SunExposed,                             !- Sun Exposure
  WindExposed,                            !- Wind Exposure
  ,                                       !- View Factor to Ground
  ,                                       !- Number of Vertices
  4.61852778244065e-014, -3.5527136788005e-015, 3.9624, !- X,Y,Z Vertex 1 {m}
  4.61852778244065e-014, -3.5527136788005e-015, 0, !- X,Y,Z Vertex 2 {m}
  4.572, -3.5527136788005e-015, 0,        !- X,Y,Z Vertex 3 {m}
  4.572, -3.5527136788005e-015, 3.9624;   !- X,Y,Z Vertex 4 {m}

OS:Surface,
  {303fa97a-db00-4e98-b7cc-7a87a305fa7b}, !- Handle
  Surface 6,                              !- Name
  RoofCeiling,                            !- Surface Type
  ,                                       !- Construction Name
  {399325c1-1c2e-4101-935f-75c57e4b4c1c}, !- Space Name
  Surface,                                !- Outside Boundary Condition
  {023dd0d3-0b27-4182-8cee-39bc1a5dd582}, !- Outside Boundary Condition Object
  NoSun,                                  !- Sun Exposure
  NoWind,                                 !- Wind Exposure
  ,                                       !- View Factor to Ground
  ,                                       !- Number of Vertices
  4.572, -3.5527136788005e-015, 3.9624,   !- X,Y,Z Vertex 1 {m}
  4.572, 4.572, 3.9624,                   !- X,Y,Z Vertex 2 {m}
  4.61852778244065e-014, 4.572, 3.9624,   !- X,Y,Z Vertex 3 {m}
  4.61852778244065e-014, -3.5527136788005e-015, 3.9624; !- X,Y,Z Vertex 4 {m}

OS:ThermalZone,
  {ea5bf0aa-20ad-4629-bcc3-e0422d7d7c41}, !- Handle
  Zone PrimarySchool Corridor A end_a - Story Ground, !- Name
  1,                                      !- Multiplier
  ,                                       !- Ceiling Height {m}
  ,                                       !- Volume {m3}
  ,                                       !- Floor Area {m2}
  ,                                       !- Zone Inside Convection Algorithm
  ,                                       !- Zone Outside Convection Algorithm
  ,                                       !- Zone Conditioning Equipment List Name
  {2ebbeae8-fee7-4b04-9af3-25c451aaeca6}, !- Zone Air Inlet Port List
  {bbf3d5ac-ba2b-4393-b9f3-1b3777d9c04d}, !- Zone Air Exhaust Port List
  {294e3a43-af16-47af-a900-012870cf626d}, !- Zone Air Node Name
  {a6078a68-e044-4aa4-8ba9-75dcc4adb914}, !- Zone Return Air Port List
  ,                                       !- Primary Daylighting Control Name
  ,                                       !- Fraction of Zone Controlled by Primary Daylighting Control
  ,                                       !- Secondary Daylighting Control Name
  ,                                       !- Fraction of Zone Controlled by Secondary Daylighting Control
  ,                                       !- Illuminance Map Name
  ,                                       !- Group Rendering Name
  ,                                       !- Thermostat Name
  No;                                     !- Use Ideal Air Loads

OS:Node,
  {4e2eaa8f-ba34-4ec5-a081-a768fac40e32}, !- Handle
  Node 1,                                 !- Name
  {294e3a43-af16-47af-a900-012870cf626d}, !- Inlet Port
  ;                                       !- Outlet Port

OS:Connection,
  {294e3a43-af16-47af-a900-012870cf626d}, !- Handle
  {b9912f16-a7ce-4425-8852-12f0a67b6273}, !- Name
  {ea5bf0aa-20ad-4629-bcc3-e0422d7d7c41}, !- Source Object
  11,                                     !- Outlet Port
  {4e2eaa8f-ba34-4ec5-a081-a768fac40e32}, !- Target Object
  2;                                      !- Inlet Port

OS:PortList,
  {2ebbeae8-fee7-4b04-9af3-25c451aaeca6}, !- Handle
  {633a36a1-88c2-4e27-981a-45658a12ee1e}, !- Name
  {ea5bf0aa-20ad-4629-bcc3-e0422d7d7c41}; !- HVAC Component

OS:PortList,
  {bbf3d5ac-ba2b-4393-b9f3-1b3777d9c04d}, !- Handle
  {cf2307d0-32c4-4df7-b39c-181a95832181}, !- Name
  {ea5bf0aa-20ad-4629-bcc3-e0422d7d7c41}; !- HVAC Component

OS:PortList,
  {a6078a68-e044-4aa4-8ba9-75dcc4adb914}, !- Handle
  {6453131d-83ef-4045-bf2e-b8db29c9805b}, !- Name
  {ea5bf0aa-20ad-4629-bcc3-e0422d7d7c41}; !- HVAC Component

OS:Sizing:Zone,
  {b9fa6ad7-1197-4b99-9e3c-386520d6ea2b}, !- Handle
  {ea5bf0aa-20ad-4629-bcc3-e0422d7d7c41}, !- Zone or ZoneList Name
  SupplyAirTemperature,                   !- Zone Cooling Design Supply Air Temperature Input Method
  14,                                     !- Zone Cooling Design Supply Air Temperature {C}
  11.11,                                  !- Zone Cooling Design Supply Air Temperature Difference {deltaC}
  SupplyAirTemperature,                   !- Zone Heating Design Supply Air Temperature Input Method
  40,                                     !- Zone Heating Design Supply Air Temperature {C}
  11.11,                                  !- Zone Heating Design Supply Air Temperature Difference {deltaC}
  0.0085,                                 !- Zone Cooling Design Supply Air Humidity Ratio {kg-H2O/kg-air}
  0.008,                                  !- Zone Heating Design Supply Air Humidity Ratio {kg-H2O/kg-air}
  ,                                       !- Zone Heating Sizing Factor
  ,                                       !- Zone Cooling Sizing Factor
  DesignDay,                              !- Cooling Design Air Flow Method
  ,                                       !- Cooling Design Air Flow Rate {m3/s}
  ,                                       !- Cooling Minimum Air Flow per Zone Floor Area {m3/s-m2}
  ,                                       !- Cooling Minimum Air Flow {m3/s}
  ,                                       !- Cooling Minimum Air Flow Fraction
  DesignDay,                              !- Heating Design Air Flow Method
  ,                                       !- Heating Design Air Flow Rate {m3/s}
  ,                                       !- Heating Maximum Air Flow per Zone Floor Area {m3/s-m2}
  ,                                       !- Heating Maximum Air Flow {m3/s}
  ,                                       !- Heating Maximum Air Flow Fraction
  ,                                       !- Design Zone Air Distribution Effectiveness in Cooling Mode
  ,                                       !- Design Zone Air Distribution Effectiveness in Heating Mode
  No,                                     !- Account for Dedicated Outdoor Air System
  NeutralSupplyAir,                       !- Dedicated Outdoor Air System Control Strategy
  autosize,                               !- Dedicated Outdoor Air Low Setpoint Temperature for Design {C}
  autosize;                               !- Dedicated Outdoor Air High Setpoint Temperature for Design {C}

OS:ZoneHVAC:EquipmentList,
  {9acb1af0-f3c8-4f4e-8574-d5d1def20cfe}, !- Handle
  Zone HVAC Equipment List 1,             !- Name
  {ea5bf0aa-20ad-4629-bcc3-e0422d7d7c41}; !- Thermal Zone

OS:Space,
  {66acb8bd-04ef-4557-8b61-5ba536f53036}, !- Handle
  PrimarySchool Corridor B end_a - Story Ground, !- Name
  {20693b21-30e8-46ed-b8bd-c0ddee49db3e}, !- Space Type Name
  ,                                       !- Default Construction Set Name
  ,                                       !- Default Schedule Set Name
  -0,                                     !- Direction of Relative North {deg}
  -13.1982271536748,                      !- X Origin {m}
  -4.2268181024499,                       !- Y Origin {m}
  0,                                      !- Z Origin {m}
  {fcb13407-e9b5-47ba-9151-a7465d2644d5}, !- Building Story Name
  {a6498b53-1407-4d14-9f74-a83131366a0e}; !- Thermal Zone Name

OS:Surface,
  {bad9e0f2-7806-4830-af00-7ea50ceadabc}, !- Handle
  Surface 7,                              !- Name
  Floor,                                  !- Surface Type
  ,                                       !- Construction Name
  {66acb8bd-04ef-4557-8b61-5ba536f53036}, !- Space Name
  Ground,                                 !- Outside Boundary Condition
  ,                                       !- Outside Boundary Condition Object
  NoSun,                                  !- Sun Exposure
  NoWind,                                 !- Wind Exposure
  ,                                       !- View Factor to Ground
  ,                                       !- Number of Vertices
  4.61852778244065e-014, -3.5527136788005e-015, 0, !- X,Y,Z Vertex 1 {m}
  4.61852778244065e-014, 8.4536362048998, 0, !- X,Y,Z Vertex 2 {m}
  4.572, 8.4536362048998, 0,              !- X,Y,Z Vertex 3 {m}
  4.572, -3.5527136788005e-015, 0;        !- X,Y,Z Vertex 4 {m}

OS:Surface,
  {3c712242-d908-4a3c-81f6-fa5af3f5fbef}, !- Handle
  Surface 8,                              !- Name
  Wall,                                   !- Surface Type
  ,                                       !- Construction Name
  {66acb8bd-04ef-4557-8b61-5ba536f53036}, !- Space Name
  Outdoors,                               !- Outside Boundary Condition
  ,                                       !- Outside Boundary Condition Object
  SunExposed,                             !- Sun Exposure
  WindExposed,                            !- Wind Exposure
  ,                                       !- View Factor to Ground
  ,                                       !- Number of Vertices
  4.61852778244065e-014, 8.4536362048998, 3.9624, !- X,Y,Z Vertex 1 {m}
  4.61852778244065e-014, 8.4536362048998, 0, !- X,Y,Z Vertex 2 {m}
  4.61852778244065e-014, -3.5527136788005e-015, 0, !- X,Y,Z Vertex 3 {m}
  4.61852778244065e-014, -3.5527136788005e-015, 3.9624; !- X,Y,Z Vertex 4 {m}

OS:Surface,
  {df691efb-9eb9-403e-9bad-a26a45da9d3b}, !- Handle
  Surface 9,                              !- Name
  Wall,                                   !- Surface Type
  ,                                       !- Construction Name
  {66acb8bd-04ef-4557-8b61-5ba536f53036}, !- Space Name
  Surface,                                !- Outside Boundary Condition
  {df380ae5-4b15-4ad0-85ba-bd657aa9dbbf}, !- Outside Boundary Condition Object
  NoSun,                                  !- Sun Exposure
  NoWind,                                 !- Wind Exposure
  ,                                       !- View Factor to Ground
  ,                                       !- Number of Vertices
  4.572, 8.4536362048998, 3.9624,         !- X,Y,Z Vertex 1 {m}
  4.572, 8.4536362048998, 0,              !- X,Y,Z Vertex 2 {m}
  4.61852778244065e-014, 8.4536362048998, 0, !- X,Y,Z Vertex 3 {m}
  4.61852778244065e-014, 8.4536362048998, 3.9624; !- X,Y,Z Vertex 4 {m}

OS:Surface,
  {a99b3888-d428-4378-b296-be737028dbbc}, !- Handle
  Surface 10,                             !- Name
  Wall,                                   !- Surface Type
  ,                                       !- Construction Name
  {66acb8bd-04ef-4557-8b61-5ba536f53036}, !- Space Name
  Surface,                                !- Outside Boundary Condition
  {ed4e599f-3cb4-4ee6-a520-2b1c3b6a39da}, !- Outside Boundary Condition Object
  NoSun,                                  !- Sun Exposure
  NoWind,                                 !- Wind Exposure
  ,                                       !- View Factor to Ground
  ,                                       !- Number of Vertices
  4.572, -3.5527136788005e-015, 3.9624,   !- X,Y,Z Vertex 1 {m}
  4.572, -3.5527136788005e-015, 0,        !- X,Y,Z Vertex 2 {m}
  4.572, 8.4536362048998, 0,              !- X,Y,Z Vertex 3 {m}
  4.572, 8.4536362048998, 3.9624;         !- X,Y,Z Vertex 4 {m}

OS:Surface,
  {c090fe54-19de-41c7-87b9-9441562cd623}, !- Handle
  Surface 11,                             !- Name
  Wall,                                   !- Surface Type
  ,                                       !- Construction Name
  {66acb8bd-04ef-4557-8b61-5ba536f53036}, !- Space Name
  Surface,                                !- Outside Boundary Condition
  {3edbd166-14eb-4b03-b397-05a0462a9616}, !- Outside Boundary Condition Object
  NoSun,                                  !- Sun Exposure
  NoWind,                                 !- Wind Exposure
  ,                                       !- View Factor to Ground
  ,                                       !- Number of Vertices
  4.61852778244065e-014, -3.5527136788005e-015, 3.9624, !- X,Y,Z Vertex 1 {m}
  4.61852778244065e-014, -3.5527136788005e-015, 0, !- X,Y,Z Vertex 2 {m}
  4.572, -3.5527136788005e-015, 0,        !- X,Y,Z Vertex 3 {m}
  4.572, -3.5527136788005e-015, 3.9624;   !- X,Y,Z Vertex 4 {m}

OS:Surface,
  {334ca46f-e479-43b6-9354-0c206eae5163}, !- Handle
  Surface 12,                             !- Name
  RoofCeiling,                            !- Surface Type
  ,                                       !- Construction Name
  {66acb8bd-04ef-4557-8b61-5ba536f53036}, !- Space Name
  Surface,                                !- Outside Boundary Condition
  {62495cbf-9ce3-4a99-b5c2-953930d267e4}, !- Outside Boundary Condition Object
  NoSun,                                  !- Sun Exposure
  NoWind,                                 !- Wind Exposure
  ,                                       !- View Factor to Ground
  ,                                       !- Number of Vertices
  4.572, -3.5527136788005e-015, 3.9624,   !- X,Y,Z Vertex 1 {m}
  4.572, 8.4536362048998, 3.9624,         !- X,Y,Z Vertex 2 {m}
  4.61852778244065e-014, 8.4536362048998, 3.9624, !- X,Y,Z Vertex 3 {m}
  4.61852778244065e-014, -3.5527136788005e-015, 3.9624; !- X,Y,Z Vertex 4 {m}

OS:ThermalZone,
  {a6498b53-1407-4d14-9f74-a83131366a0e}, !- Handle
  Zone PrimarySchool Corridor B end_a - Story Ground, !- Name
  1,                                      !- Multiplier
  ,                                       !- Ceiling Height {m}
  ,                                       !- Volume {m3}
  ,                                       !- Floor Area {m2}
  ,                                       !- Zone Inside Convection Algorithm
  ,                                       !- Zone Outside Convection Algorithm
  ,                                       !- Zone Conditioning Equipment List Name
  {e40465cd-45f8-4817-92d1-31bcd91b5226}, !- Zone Air Inlet Port List
  {3b2006b4-760b-4d04-9401-023b8492ac7d}, !- Zone Air Exhaust Port List