
OS:Version,
  {0065ade5-c8ea-4d52-b578-286e1e1dec57}, !- Handle
  2.7.2;                                  !- Version Identifier

OS:SpaceType,
  {e4b7211e-445b-4b35-b6c7-630c58459ee9}, !- Handle
  PrimarySchool Cafeteria,                !- Name
  ,                                       !- Default Construction Set Name
  ,                                       !- Default Schedule Set Name
  {54c0e7a8-47ad-4880-a659-f6cb375b1c76}, !- Group Rendering Name
  ,                                       !- Design Specification Outdoor Air Object Name
  ,                                       !- Standards Template
  PrimarySchool,                          !- Standards Building Type
  Cafeteria;                              !- Standards Space Type

OS:Rendering:Color,
  {54c0e7a8-47ad-4880-a659-f6cb375b1c76}, !- Handle
  PrimarySchool Cafeteria,                !- Name
  31,                                     !- Rendering Red Value
  169,                                    !- Rendering Green Value
  34;                                     !- Rendering Blue Value

OS:SpaceType,
  {3c236610-8ac2-4d7e-9f5e-bd260bf7397d}, !- Handle
  PrimarySchool Classroom,                !- Name
  ,                                       !- Default Construction Set Name
  ,                                       !- Default Schedule Set Name
  {b1761715-7d39-4d14-b9f0-1f2f0805a2ee}, !- Group Rendering Name
  ,                                       !- Design Specification Outdoor Air Object Name
  ,                                       !- Standards Template
  PrimarySchool,                          !- Standards Building Type
  Classroom;                              !- Standards Space Type

OS:Rendering:Color,
  {b1761715-7d39-4d14-b9f0-1f2f0805a2ee}, !- Handle
  PrimarySchool Classroom,                !- Name
  120,                                    !- Rendering Red Value
  230,                                    !- Rendering Green Value
  199;                                    !- Rendering Blue Value

OS:SpaceType,
  {84c0c2b6-48f4-43b9-8b7b-9eaf8b2e323b}, !- Handle
  PrimarySchool Corridor,                 !- Name
  ,                                       !- Default Construction Set Name
  ,                                       !- Default Schedule Set Name
  {3a238ea8-657f-4570-b0bb-9ddbc15bb44b}, !- Group Rendering Name
  ,                                       !- Design Specification Outdoor Air Object Name
  ,                                       !- Standards Template
  PrimarySchool,                          !- Standards Building Type
  Corridor;                               !- Standards Space Type

OS:Rendering:Color,
  {3a238ea8-657f-4570-b0bb-9ddbc15bb44b}, !- Handle
  PrimarySchool Corridor,                 !- Name
  169,                                    !- Rendering Red Value
  31,                                     !- Rendering Green Value
  31;                                     !- Rendering Blue Value

OS:SpaceType,
  {cd8eedd8-3ddd-4c61-932e-ef6d2f7b72e1}, !- Handle
  PrimarySchool Gym,                      !- Name
  ,                                       !- Default Construction Set Name
  ,                                       !- Default Schedule Set Name
  {45e3bba2-f657-4aaf-b463-38b33414e682}, !- Group Rendering Name
  ,                                       !- Design Specification Outdoor Air Object Name
  ,                                       !- Standards Template
  PrimarySchool,                          !- Standards Building Type
  Gym;                                    !- Standards Space Type

OS:Rendering:Color,
  {45e3bba2-f657-4aaf-b463-38b33414e682}, !- Handle
  PrimarySchool Gym,                      !- Name
  154,                                    !- Rendering Red Value
  230,                                    !- Rendering Green Value
  120;                                    !- Rendering Blue Value

OS:SpaceType,
  {35dea99c-aebe-4357-906d-7fecaa75f04f}, !- Handle
  PrimarySchool Kitchen,                  !- Name
  ,                                       !- Default Construction Set Name
  ,                                       !- Default Schedule Set Name
  {1d2e3134-39e3-4a1c-b13e-fadf2f222c9a}, !- Group Rendering Name
  ,                                       !- Design Specification Outdoor Air Object Name
  ,                                       !- Standards Template
  PrimarySchool,                          !- Standards Building Type
  Kitchen;                                !- Standards Space Type

OS:Rendering:Color,
  {1d2e3134-39e3-4a1c-b13e-fadf2f222c9a}, !- Handle
  PrimarySchool Kitchen,                  !- Name
  78,                                     !- Rendering Red Value
  222,                                    !- Rendering Green Value
  133;                                    !- Rendering Blue Value

OS:SpaceType,
  {03004695-6ef3-4a81-b903-31a423a3ad28}, !- Handle
  PrimarySchool Library,                  !- Name
  ,                                       !- Default Construction Set Name
  ,                                       !- Default Schedule Set Name
  {b522aaf9-0741-4b1b-9d9e-65335fbaba25}, !- Group Rendering Name
  ,                                       !- Design Specification Outdoor Air Object Name
  ,                                       !- Standards Template
  PrimarySchool,                          !- Standards Building Type
  Library;                                !- Standards Space Type

OS:Rendering:Color,
  {b522aaf9-0741-4b1b-9d9e-65335fbaba25}, !- Handle
  PrimarySchool Library,                  !- Name
  230,                                    !- Rendering Red Value
  196,                                    !- Rendering Green Value
  120;                                    !- Rendering Blue Value

OS:SpaceType,
  {47572828-d20e-41a9-83d3-5d04f5552484}, !- Handle
  PrimarySchool Lobby,                    !- Name
  ,                                       !- Default Construction Set Name
  ,                                       !- Default Schedule Set Name
  {5bdab91b-f17f-4024-bd40-cf0aa7b129c3}, !- Group Rendering Name
  ,                                       !- Design Specification Outdoor Air Object Name
  ,                                       !- Standards Template
  PrimarySchool,                          !- Standards Building Type
  Lobby;                                  !- Standards Space Type

OS:Rendering:Color,
  {5bdab91b-f17f-4024-bd40-cf0aa7b129c3}, !- Handle
  PrimarySchool Lobby,                    !- Name
  230,                                    !- Rendering Red Value
  157,                                    !- Rendering Green Value
  120;                                    !- Rendering Blue Value

OS:SpaceType,
  {bf90fb8e-6a5c-4692-9e1f-6f139760ea81}, !- Handle
  PrimarySchool Mechanical,               !- Name
  ,                                       !- Default Construction Set Name
  ,                                       !- Default Schedule Set Name
  {df8fd065-bde2-4302-a867-9c418cbf34d2}, !- Group Rendering Name
  ,                                       !- Design Specification Outdoor Air Object Name
  ,                                       !- Standards Template
  PrimarySchool,                          !- Standards Building Type
  Mechanical;                             !- Standards Space Type

OS:Rendering:Color,
  {df8fd065-bde2-4302-a867-9c418cbf34d2}, !- Handle
  PrimarySchool Mechanical,               !- Name
  41,                                     !- Rendering Red Value
  31,                                     !- Rendering Green Value
  169;                                    !- Rendering Blue Value

OS:SpaceType,
  {341ef4df-f4b9-4384-9196-e12e1d329942}, !- Handle
  PrimarySchool Office,                   !- Name
  ,                                       !- Default Construction Set Name
  ,                                       !- Default Schedule Set Name
  {86aa73c0-bc5a-4358-b36f-4c7e8e4aba60}, !- Group Rendering Name
  ,                                       !- Design Specification Outdoor Air Object Name
  ,                                       !- Standards Template
  PrimarySchool,                          !- Standards Building Type
  Office;                                 !- Standards Space Type

OS:Rendering:Color,
  {86aa73c0-bc5a-4358-b36f-4c7e8e4aba60}, !- Handle
  PrimarySchool Office,                   !- Name
  120,                                    !- Rendering Red Value
  230,                                    !- Rendering Green Value
  199;                                    !- Rendering Blue Value

OS:SpaceType,
  {0c91377a-db5c-4976-9fab-181cf39634ca}, !- Handle
  PrimarySchool Restroom,                 !- Name
  ,                                       !- Default Construction Set Name
  ,                                       !- Default Schedule Set Name
  {b62db26f-b09c-4f3b-a29d-d30d0e5cd08c}, !- Group Rendering Name
  ,                                       !- Design Specification Outdoor Air Object Name
  ,                                       !- Standards Template
  PrimarySchool,                          !- Standards Building Type
  Restroom;                               !- Standards Space Type

OS:Rendering:Color,
  {b62db26f-b09c-4f3b-a29d-d30d0e5cd08c}, !- Handle
  PrimarySchool Restroom,                 !- Name
  169,                                    !- Rendering Red Value
  169,                                    !- Rendering Green Value
  31;                                     !- Rendering Blue Value

OS:Building,
  {8301ea57-64d3-4802-a9fc-826de79f9125}, !- Handle
  90.1-2004|PrimarySchool,                !- Name
  ,                                       !- Building Sector Type
  ,                                       !- North Axis {deg}
  ,                                       !- Nominal Floor to Floor Height {m}
  ,                                       !- Space Type Name
  ,                                       !- Default Construction Set Name
  ;                                       !- Default Schedule Set Name

OS:Site,
  {149373f8-9867-4191-bfd3-37ae294db84a}, !- Handle
  Site 1,                                 !- Name
  ,                                       !- Latitude {deg}
  ,                                       !- Longitude {deg}
  ,                                       !- Time Zone {hr}
  ,                                       !- Elevation {m}
  ;                                       !- Terrain

OS:BuildingStory,
  {f21c1691-52f4-4780-bff0-6669d5df3760}, !- Handle
  Story Ground,                           !- Name
  0,                                      !- Nominal Z Coordinate {m}
  3.9624,                                 !- Nominal Floor to Floor Height {m}
  ,                                       !- Default Construction Set Name
  ,                                       !- Default Schedule Set Name
  ;                                       !- Group Rendering Name

OS:Space,
  {671df5aa-2ee3-4290-8e4a-2f2d8fb0edb3}, !- Handle
  PrimarySchool Corridor A end_a - Story Ground, !- Name
  {84c0c2b6-48f4-43b9-8b7b-9eaf8b2e323b}, !- Space Type Name
  ,                                       !- Default Construction Set Name
  ,                                       !- Default Schedule Set Name
  -0,                                     !- Direction of Relative North {deg}
  -13.1982271536748,                      !- X Origin {m}
  -8.7988181024499,                       !- Y Origin {m}
  0,                                      !- Z Origin {m}
  {f21c1691-52f4-4780-bff0-6669d5df3760}, !- Building Story Name
  {885780cd-7ad3-4c96-923a-ecf5a5e61a73}; !- Thermal Zone Name

OS:Surface,
  {33479ae2-6252-4255-9a8a-c3c7b3aa8888}, !- Handle
  Surface 1,                              !- Name
  Floor,                                  !- Surface Type
  ,                                       !- Construction Name
  {671df5aa-2ee3-4290-8e4a-2f2d8fb0edb3}, !- Space Name
  Ground,                                 !- Outside Boundary Condition
  ,                                       !- Outside Boundary Condition Object
  NoSun,                                  !- Sun Exposure
  NoWind,                                 !- Wind Exposure
  ,                                       !- View Factor to Ground
  ,                                       !- Number of Vertices
  4.61852778244065e-014, -3.5527136788005e-015, 0, !- X,Y,Z Vertex 1 {m}
  4.61852778244065e-014, 4.572, 0,        !- X,Y,Z Vertex 2 {m}
  4.572, 4.572, 0,                        !- X,Y,Z Vertex 3 {m}
  4.572, -3.5527136788005e-015, 0;        !- X,Y,Z Vertex 4 {m}

OS:Surface,
  {807b94f3-e05e-4ea5-8e92-f0e0188c309b}, !- Handle
  Surface 2,                              !- Name
  Wall,                                   !- Surface Type
  ,                                       !- Construction Name
  {671df5aa-2ee3-4290-8e4a-2f2d8fb0edb3}, !- Space Name
  Outdoors,                               !- Outside Boundary Condition
  ,                                       !- Outside Boundary Condition Object
  SunExposed,                             !- Sun Exposure
  WindExposed,                            !- Wind Exposure
  ,                                       !- View Factor to Ground
  ,                                       !- Number of Vertices
  4.61852778244065e-014, 4.572, 3.9624,   !- X,Y,Z Vertex 1 {m}
  4.61852778244065e-014, 4.572, 0,        !- X,Y,Z Vertex 2 {m}
  4.61852778244065e-014, -3.5527136788005e-015, 0, !- X,Y,Z Vertex 3 {m}
  4.61852778244065e-014, -3.5527136788005e-015, 3.9624; !- X,Y,Z Vertex 4 {m}

OS:Surface,
  {e4ad6535-86e8-4846-a719-17a957e8a399}, !- Handle
  Surface 3,                              !- Name
  Wall,                                   !- Surface Type
  ,                                       !- Construction Name
  {671df5aa-2ee3-4290-8e4a-2f2d8fb0edb3}, !- Space Name
  Surface,                                !- Outside Boundary Condition
  {5a12fa59-4495-4cf3-b1ec-d9b31272a56a}, !- Outside Boundary Condition Object
  NoSun,                                  !- Sun Exposure
  NoWind,                                 !- Wind Exposure
  ,                                       !- View Factor to Ground
  ,                                       !- Number of Vertices
  4.572, 4.572, 3.9624,                   !- X,Y,Z Vertex 1 {m}
  4.572, 4.572, 0,                        !- X,Y,Z Vertex 2 {m}
  4.61852778244065e-014, 4.572, 0,        !- X,Y,Z Vertex 3 {m}
  4.61852778244065e-014, 4.572, 3.9624;   !- X,Y,Z Vertex 4 {m}

OS:Surface,
  {e13c3000-3588-43b4-ba40-89fbf6ba4c3b}, !- Handle
  Surface 4,                              !- Name
  Wall,                                   !- Surface Type
  ,                                       !- Construction Name
  {671df5aa-2ee3-4290-8e4a-2f2d8fb0edb3}, !- Space Name
  Surface,                                !- Outside Boundary Condition
  {bfa1fba5-9600-4d09-8090-48bde4b7b9ce}, !- Outside Boundary Condition Object
  NoSun,                                  !- Sun Exposure
  NoWind,                                 !- Wind Exposure
  ,                                       !- View Factor to Ground
  ,                                       !- Number of Vertices
  4.572, -3.5527136788005e-015, 3.9624,   !- X,Y,Z Vertex 1 {m}
  4.572, -3.5527136788005e-015, 0,        !- X,Y,Z Vertex 2 {m}
  4.572, 4.572, 0,                        !- X,Y,Z Vertex 3 {m}
  4.572, 4.572, 3.9624;                   !- X,Y,Z Vertex 4 {m}

OS:Surface,
  {866fdce0-73ce-4a66-a1e4-d8de86f62966}, !- Handle
  Surface 5,                              !- Name
  Wall,                                   !- Surface Type
  ,                                       !- Construction Name
  {671df5aa-2ee3-4290-8e4a-2f2d8fb0edb3}, !- Space Name
  Outdoors,                               !- Outside Boundary Condition
  ,                                       !- Outside Boundary Condition Object
  SunExposed,                             !- Sun Exposure
  WindExposed,                            !- Wind Exposure
  ,                                       !- View Factor to Ground
  ,                                       !- Number of Vertices
  4.61852778244065e-014, -3.5527136788005e-015, 3.9624, !- X,Y,Z Vertex 1 {m}
  4.61852778244065e-014, -3.5527136788005e-015, 0, !- X,Y,Z Vertex 2 {m}
  4.572, -3.5527136788005e-015, 0,        !- X,Y,Z Vertex 3 {m}
  4.572, -3.5527136788005e-015, 3.9624;   !- X,Y,Z Vertex 4 {m}

OS:Surface,
  {66977c7f-9f9b-498d-8f74-c9368dacfdd2}, !- Handle
  Surface 6,                              !- Name
  RoofCeiling,                            !- Surface Type
  ,                                       !- Construction Name
  {671df5aa-2ee3-4290-8e4a-2f2d8fb0edb3}, !- Space Name
  Surface,                                !- Outside Boundary Condition
  {4dd586cc-96a8-4d6c-bd65-0573792c6cd8}, !- Outside Boundary Condition Object
  NoSun,                                  !- Sun Exposure
  NoWind,                                 !- Wind Exposure
  ,                                       !- View Factor to Ground
  ,                                       !- Number of Vertices
  4.572, -3.5527136788005e-015, 3.9624,   !- X,Y,Z Vertex 1 {m}
  4.572, 4.572, 3.9624,                   !- X,Y,Z Vertex 2 {m}
  4.61852778244065e-014, 4.572, 3.9624,   !- X,Y,Z Vertex 3 {m}
  4.61852778244065e-014, -3.5527136788005e-015, 3.9624; !- X,Y,Z Vertex 4 {m}

OS:ThermalZone,
  {885780cd-7ad3-4c96-923a-ecf5a5e61a73}, !- Handle
  Zone PrimarySchool Corridor A end_a - Story Ground, !- Name
  1,                                      !- Multiplier
  ,                                       !- Ceiling Height {m}
  ,                                       !- Volume {m3}
  ,                                       !- Floor Area {m2}
  ,                                       !- Zone Inside Convection Algorithm
  ,                                       !- Zone Outside Convection Algorithm
  ,                                       !- Zone Conditioning Equipment List Name
  {3de6f917-d678-46a2-b73d-ba0cfee0ee04}, !- Zone Air Inlet Port List
  {34ea6fc4-e2db-4509-87d4-b660320344ea}, !- Zone Air Exhaust Port List
  {6ba063e1-6a7a-4256-90fb-016d119d54b1}, !- Zone Air Node Name
  {2174204d-eede-4a61-b881-4ea8d79aa75a}, !- Zone Return Air Port List
  ,                                       !- Primary Daylighting Control Name
  ,                                       !- Fraction of Zone Controlled by Primary Daylighting Control
  ,                                       !- Secondary Daylighting Control Name
  ,                                       !- Fraction of Zone Controlled by Secondary Daylighting Control
  ,                                       !- Illuminance Map Name
  ,                                       !- Group Rendering Name
  ,                                       !- Thermostat Name
  No;                                     !- Use Ideal Air Loads

OS:Node,
  {511e9dfe-91b4-4724-803c-371ebd417d9e}, !- Handle
  Node 1,                                 !- Name
  {6ba063e1-6a7a-4256-90fb-016d119d54b1}, !- Inlet Port
  ;                                       !- Outlet Port

OS:Connection,
  {6ba063e1-6a7a-4256-90fb-016d119d54b1}, !- Handle
  {dc9ec7dd-3b3c-4ec0-9a8f-c5a0215b5d67}, !- Name
  {885780cd-7ad3-4c96-923a-ecf5a5e61a73}, !- Source Object
  11,                                     !- Outlet Port
  {511e9dfe-91b4-4724-803c-371ebd417d9e}, !- Target Object
  2;                                      !- Inlet Port

OS:PortList,
  {3de6f917-d678-46a2-b73d-ba0cfee0ee04}, !- Handle
  {ecc2a01d-30ed-47de-8a3c-a5d4d99b7393}, !- Name
  {885780cd-7ad3-4c96-923a-ecf5a5e61a73}; !- HVAC Component

OS:PortList,
  {34ea6fc4-e2db-4509-87d4-b660320344ea}, !- Handle
  {08c5291e-ba7a-4975-a39a-68d2fc62d340}, !- Name
  {885780cd-7ad3-4c96-923a-ecf5a5e61a73}; !- HVAC Component

OS:PortList,
  {2174204d-eede-4a61-b881-4ea8d79aa75a}, !- Handle
  {9468e4e0-65f8-49cb-8847-8a5a1e33d6f5}, !- Name
  {885780cd-7ad3-4c96-923a-ecf5a5e61a73}; !- HVAC Component

OS:Sizing:Zone,
  {88e0c3b0-9cb9-4dc1-a183-25d8b0727cb5}, !- Handle
  {885780cd-7ad3-4c96-923a-ecf5a5e61a73}, !- Zone or ZoneList Name
  SupplyAirTemperature,                   !- Zone Cooling Design Supply Air Temperature Input Method
  14,                                     !- Zone Cooling Design Supply Air Temperature {C}
  11.11,                                  !- Zone Cooling Design Supply Air Temperature Difference {deltaC}
  SupplyAirTemperature,                   !- Zone Heating Design Supply Air Temperature Input Method
  40,                                     !- Zone Heating Design Supply Air Temperature {C}
  11.11,                                  !- Zone Heating Design Supply Air Temperature Difference {deltaC}
  0.0085,                                 !- Zone Cooling Design Supply Air Humidity Ratio {kg-H2O/kg-air}
  0.008,                                  !- Zone Heating Design Supply Air Humidity Ratio {kg-H2O/kg-air}
  ,                                       !- Zone Heating Sizing Factor
  ,                                       !- Zone Cooling Sizing Factor
  DesignDay,                              !- Cooling Design Air Flow Method
  ,                                       !- Cooling Design Air Flow Rate {m3/s}
  ,                                       !- Cooling Minimum Air Flow per Zone Floor Area {m3/s-m2}
  ,                                       !- Cooling Minimum Air Flow {m3/s}
  ,                                       !- Cooling Minimum Air Flow Fraction
  DesignDay,                              !- Heating Design Air Flow Method
  ,                                       !- Heating Design Air Flow Rate {m3/s}
  ,                                       !- Heating Maximum Air Flow per Zone Floor Area {m3/s-m2}
  ,                                       !- Heating Maximum Air Flow {m3/s}
  ,                                       !- Heating Maximum Air Flow Fraction
  ,                                       !- Design Zone Air Distribution Effectiveness in Cooling Mode
  ,                                       !- Design Zone Air Distribution Effectiveness in Heating Mode
  No,                                     !- Account for Dedicated Outdoor Air System
  NeutralSupplyAir,                       !- Dedicated Outdoor Air System Control Strategy
  autosize,                               !- Dedicated Outdoor Air Low Setpoint Temperature for Design {C}
  autosize;                               !- Dedicated Outdoor Air High Setpoint Temperature for Design {C}

OS:ZoneHVAC:EquipmentList,
  {8201e247-6104-4af0-b7be-eca410160a85}, !- Handle
  Zone HVAC Equipment List 1,             !- Name
  {885780cd-7ad3-4c96-923a-ecf5a5e61a73}; !- Thermal Zone

OS:Space,
  {3549707f-b8ee-4d57-b52c-4e2be817ef23}, !- Handle
  PrimarySchool Corridor B end_a - Story Ground, !- Name
  {84c0c2b6-48f4-43b9-8b7b-9eaf8b2e323b}, !- Space Type Name
  ,                                       !- Default Construction Set Name
  ,                                       !- Default Schedule Set Name
  -0,                                     !- Direction of Relative North {deg}
  -13.1982271536748,                      !- X Origin {m}
  -4.2268181024499,                       !- Y Origin {m}
  0,                                      !- Z Origin {m}
  {f21c1691-52f4-4780-bff0-6669d5df3760}, !- Building Story Name
  {bd1d4e57-11fe-49dd-bb11-d831646a18d9}; !- Thermal Zone Name

OS:Surface,
  {f9ad1446-7d7c-4a65-bb5e-89d8faaf8983}, !- Handle
  Surface 7,                              !- Name
  Floor,                                  !- Surface Type
  ,                                       !- Construction Name
  {3549707f-b8ee-4d57-b52c-4e2be817ef23}, !- Space Name
  Ground,                                 !- Outside Boundary Condition
  ,                                       !- Outside Boundary Condition Object
  NoSun,                                  !- Sun Exposure
  NoWind,                                 !- Wind Exposure
  ,                                       !- View Factor to Ground
  ,                                       !- Number of Vertices
  4.61852778244065e-014, -3.5527136788005e-015, 0, !- X,Y,Z Vertex 1 {m}
  4.61852778244065e-014, 8.4536362048998, 0, !- X,Y,Z Vertex 2 {m}
  4.572, 8.4536362048998, 0,              !- X,Y,Z Vertex 3 {m}
  4.572, -3.5527136788005e-015, 0;        !- X,Y,Z Vertex 4 {m}

OS:Surface,
  {8aaa9d14-a148-456c-8543-a9036042629c}, !- Handle
  Surface 8,                              !- Name
  Wall,                                   !- Surface Type
  ,                                       !- Construction Name
  {3549707f-b8ee-4d57-b52c-4e2be817ef23}, !- Space Name
  Outdoors,                               !- Outside Boundary Condition
  ,                                       !- Outside Boundary Condition Object
  SunExposed,                             !- Sun Exposure
  WindExposed,                            !- Wind Exposure
  ,                                       !- View Factor to Ground
  ,                                       !- Number of Vertices
  4.61852778244065e-014, 8.4536362048998, 3.9624, !- X,Y,Z Vertex 1 {m}
  4.61852778244065e-014, 8.4536362048998, 0, !- X,Y,Z Vertex 2 {m}
  4.61852778244065e-014, -3.5527136788005e-015, 0, !- X,Y,Z Vertex 3 {m}
  4.61852778244065e-014, -3.5527136788005e-015, 3.9624; !- X,Y,Z Vertex 4 {m}

OS:Surface,
  {db481404-61a7-4449-9db6-5b6d375f21bc}, !- Handle
  Surface 9,                              !- Name
  Wall,                                   !- Surface Type
  ,                                       !- Construction Name
  {3549707f-b8ee-4d57-b52c-4e2be817ef23}, !- Space Name
  Surface,                                !- Outside Boundary Condition
  {bee0999b-6bf8-4c51-94c4-c8d0d32a0ff8}, !- Outside Boundary Condition Object
  NoSun,                                  !- Sun Exposure
  NoWind,                                 !- Wind Exposure
  ,                                       !- View Factor to Ground
  ,                                       !- Number of Vertices
  4.572, 8.4536362048998, 3.9624,         !- X,Y,Z Vertex 1 {m}
  4.572, 8.4536362048998, 0,              !- X,Y,Z Vertex 2 {m}
  4.61852778244065e-014, 8.4536362048998, 0, !- X,Y,Z Vertex 3 {m}
  4.61852778244065e-014, 8.4536362048998, 3.9624; !- X,Y,Z Vertex 4 {m}

OS:Surface,
  {9b1f1c3a-3e57-4829-9a3c-8b60e2a15c47}, !- Handle
  Surface 10,                             !- Name
  Wall,                                   !- Surface Type
  ,                                       !- Construction Name
  {3549707f-b8ee-4d57-b52c-4e2be817ef23}, !- Space Name
  Surface,                                !- Outside Boundary Condition
  {e50463bc-f461-4b9c-90ba-5022af6c8172}, !- Outside Boundary Condition Object
  NoSun,                                  !- Sun Exposure
  NoWind,                                 !- Wind Exposure
  ,                                       !- View Factor to Ground
  ,                                       !- Number of Vertices
  4.572, -3.5527136788005e-015, 3.9624,   !- X,Y,Z Vertex 1 {m}
  4.572, -3.5527136788005e-015, 0,        !- X,Y,Z Vertex 2 {m}
  4.572, 8.4536362048998, 0,              !- X,Y,Z Vertex 3 {m}
  4.572, 8.4536362048998, 3.9624;         !- X,Y,Z Vertex 4 {m}

OS:Surface,
  {5a12fa59-4495-4cf3-b1ec-d9b31272a56a}, !- Handle
  Surface 11,                             !- Name
  Wall,                                   !- Surface Type
  ,                                       !- Construction Name
  {3549707f-b8ee-4d57-b52c-4e2be817ef23}, !- Space Name
  Surface,                                !- Outside Boundary Condition
  {e4ad6535-86e8-4846-a719-17a957e8a399}, !- Outside Boundary Condition Object
  NoSun,                                  !- Sun Exposure
  NoWind,                                 !- Wind Exposure
  ,                                       !- View Factor to Ground
  ,                                       !- Number of Vertices
  4.61852778244065e-014, -3.5527136788005e-015, 3.9624, !- X,Y,Z Vertex 1 {m}
  4.61852778244065e-014, -3.5527136788005e-015, 0, !- X,Y,Z Vertex 2 {m}
  4.572, -3.5527136788005e-015, 0,        !- X,Y,Z Vertex 3 {m}
  4.572, -3.5527136788005e-015, 3.9624;   !- X,Y,Z Vertex 4 {m}

OS:Surface,
  {fb1c8346-156c-47e0-ba57-d502a7d6d73a}, !- Handle
  Surface 12,                             !- Name
  RoofCeiling,                            !- Surface Type
  ,                                       !- Construction Name
  {3549707f-b8ee-4d57-b52c-4e2be817ef23}, !- Space Name
  Surface,                                !- Outside Boundary Condition
  {21dce8b4-513c-4017-a43f-1c2b98740fd8}, !- Outside Boundary Condition Object
  NoSun,                                  !- Sun Exposure
  NoWind,                                 !- Wind Exposure
  ,                                       !- View Factor to Ground
  ,                                       !- Number of Vertices
  4.572, -3.5527136788005e-015, 3.9624,   !- X,Y,Z Vertex 1 {m}
  4.572, 8.4536362048998, 3.9624,         !- X,Y,Z Vertex 2 {m}
  4.61852778244065e-014, 8.4536362048998, 3.9624, !- X,Y,Z Vertex 3 {m}
  4.61852778244065e-014, -3.5527136788005e-015, 3.9624; !- X,Y,Z Vertex 4 {m}

OS:ThermalZone,
  {bd1d4e57-11fe-49dd-bb11-d831646a18d9}, !- Handle
  Zone PrimarySchool Corridor B end_a - Story Ground, !- Name
  1,                                      !- Multiplier
  ,                                       !- Ceiling Height {m}
  ,                                       !- Volume {m3}
  ,                                       !- Floor Area {m2}
  ,                                       !- Zone Inside Convection Algorithm
  ,                                       !- Zone Outside Convection Algorithm
  ,                                       !- Zone Conditioning Equipment List Name
  {06e9295a-9eae-4ff2-95a3-f1bbf3bff566}, !- Zone Air Inlet Port List
  {b0be674b-7099-4e9c-a635-41e9646a04b8}, !- Zone Air Exhaust Port List