
OS:Version,
  {6b5cefdf-fb20-49e2-a7ed-b89973497c60}, !- Handle
  2.7.2;                                  !- Version Identifier

OS:SpaceType,
  {1f41d8c4-26e3-4527-8891-58bb18226f57}, !- Handle
  PrimarySchool Cafeteria,                !- Name
  ,                                       !- Default Construction Set Name
  ,                                       !- Default Schedule Set Name
  {ba5a0b02-cdb9-4a90-b34b-a67a6626192f}, !- Group Rendering Name
  ,                                       !- Design Specification Outdoor Air Object Name
  ,                                       !- Standards Template
  PrimarySchool,                          !- Standards Building Type
  Cafeteria;                              !- Standards Space Type

OS:Rendering:Color,
  {ba5a0b02-cdb9-4a90-b34b-a67a6626192f}, !- Handle
  PrimarySchool Cafeteria,                !- Name
  31,                                     !- Rendering Red Value
  169,                                    !- Rendering Green Value
  34;                                     !- Rendering Blue Value

OS:SpaceType,
  {e1155fb0-419c-4489-8960-fcda3c5e981f}, !- Handle
  PrimarySchool Classroom,                !- Name
  ,                                       !- Default Construction Set Name
  ,                                       !- Default Schedule Set Name
  {ad49c1a3-cc17-44ca-9656-027b09443765}, !- Group Rendering Name
  ,                                       !- Design Specification Outdoor Air Object Name
  ,                                       !- Standards Template
  PrimarySchool,                          !- Standards Building Type
  Classroom;                              !- Standards Space Type

OS:Rendering:Color,
  {ad49c1a3-cc17-44ca-9656-027b09443765}, !- Handle
  PrimarySchool Classroom,                !- Name
  120,                                    !- Rendering Red Value
  230,                                    !- Rendering Green Value
  199;                                    !- Rendering Blue Value

OS:SpaceType,
  {cb946e14-5bc2-42fd-b004-eb15c21e3900}, !- Handle
  PrimarySchool Corridor,                 !- Name
  ,                                       !- Default Construction Set Name
  ,                                       !- Default Schedule Set Name
  {fd06da4f-97c8-4440-a695-9bf8f2645e73}, !- Group Rendering Name
  ,                                       !- Design Specification Outdoor Air Object Name
  ,                                       !- Standards Template
  PrimarySchool,                          !- Standards Building Type
  Corridor;                               !- Standards Space Type

OS:Rendering:Color,
  {fd06da4f-97c8-4440-a695-9bf8f2645e73}, !- Handle
  PrimarySchool Corridor,                 !- Name
  169,                                    !- Rendering Red Value
  31,                                     !- Rendering Green Value
  31;                                     !- Rendering Blue Value

OS:SpaceType,
  {69097975-cfe6-4f67-803b-45f0e4a50cdf}, !- Handle
  PrimarySchool Gym,                      !- Name
  ,                                       !- Default Construction Set Name
  ,                                       !- Default Schedule Set Name
  {582c9ecd-610f-407d-98dc-c2ce875e0b46}, !- Group Rendering Name
  ,                                       !- Design Specification Outdoor Air Object Name
  ,                                       !- Standards Template
  PrimarySchool,                          !- Standards Building Type
  Gym;                                    !- Standards Space Type

OS:Rendering:Color,
  {582c9ecd-610f-407d-98dc-c2ce875e0b46}, !- Handle
  PrimarySchool Gym,                      !- Name
  154,                                    !- Rendering Red Value
  230,                                    !- Rendering Green Value
  120;                                    !- Rendering Blue Value

OS:SpaceType,
  {e2485708-0ba1-4e8c-9d79-1e17715b7c62}, !- Handle
  PrimarySchool Kitchen,                  !- Name
  ,                                       !- Default Construction Set Name
  ,                                       !- Default Schedule Set Name
  {5cc2eb1a-e3fe-41bb-b3b0-2841b57931b8}, !- Group Rendering Name
  ,                                       !- Design Specification Outdoor Air Object Name
  ,                                       !- Standards Template
  PrimarySchool,                          !- Standards Building Type
  Kitchen;                                !- Standards Space Type

OS:Rendering:Color,
  {5cc2eb1a-e3fe-41bb-b3b0-2841b57931b8}, !- Handle
  PrimarySchool Kitchen,                  !- Name
  78,                                     !- Rendering Red Value
  222,                                    !- Rendering Green Value
  133;                                    !- Rendering Blue Value

OS:SpaceType,
  {93facb85-3563-4b83-9018-5dc1a443d7e8}, !- Handle
  PrimarySchool Library,                  !- Name
  ,                                       !- Default Construction Set Name
  ,                                       !- Default Schedule Set Name
  {810b6103-137c-426d-b790-6579caf4e270}, !- Group Rendering Name
  ,                                       !- Design Specification Outdoor Air Object Name
  ,                                       !- Standards Template
  PrimarySchool,                          !- Standards Building Type
  Library;                                !- Standards Space Type

OS:Rendering:Color,
  {810b6103-137c-426d-b790-6579caf4e270}, !- Handle
  PrimarySchool Library,                  !- Name
  230,                                    !- Rendering Red Value
  196,                                    !- Rendering Green Value
  120;                                    !- Rendering Blue Value

OS:SpaceType,
  {aa85618c-c692-4ca7-b35b-f9f42975d059}, !- Handle
  PrimarySchool Lobby,                    !- Name
  ,                                       !- Default Construction Set Name
  ,                                       !- Default Schedule Set Name
  {052c1a52-b3f7-481f-a5d7-e99eef234ea5}, !- Group Rendering Name
  ,                                       !- Design Specification Outdoor Air Object Name
  ,                                       !- Standards Template
  PrimarySchool,                          !- Standards Building Type
  Lobby;                                  !- Standards Space Type

OS:Rendering:Color,
  {052c1a52-b3f7-481f-a5d7-e99eef234ea5}, !- Handle
  PrimarySchool Lobby,                    !- Name
  230,                                    !- Rendering Red Value
  157,                                    !- Rendering Green Value
  120;                                    !- Rendering Blue Value

OS:SpaceType,
  {3c274e4c-abc7-4a3f-8e5b-095aa9b52a68}, !- Handle
  PrimarySchool Mechanical,               !- Name
  ,                                       !- Default Construction Set Name
  ,                                       !- Default Schedule Set Name
  {ab0ce8c4-01db-414e-94b7-6e2c52a23ea8}, !- Group Rendering Name
  ,                                       !- Design Specification Outdoor Air Object Name
  ,                                       !- Standards Template
  PrimarySchool,                          !- Standards Building Type
  Mechanical;                             !- Standards Space Type

OS:Rendering:Color,
  {ab0ce8c4-01db-414e-94b7-6e2c52a23ea8}, !- Handle
  PrimarySchool Mechanical,               !- Name
  41,                                     !- Rendering Red Value
  31,                                     !- Rendering Green Value
  169;                                    !- Rendering Blue Value

OS:SpaceType,
  {e5403196-12e4-401b-91c4-eaabcea39244}, !- Handle
  PrimarySchool Office,                   !- Name
  ,                                       !- Default Construction Set Name
  ,                                       !- Default Schedule Set Name
  {c0a80dc3-8beb-48a3-97e9-393a05212b48}, !- Group Rendering Name
  ,                                       !- Design Specification Outdoor Air Object Name
  ,                                       !- Standards Template
  PrimarySchool,                          !- Standards Building Type
  Office;                                 !- Standards Space Type

OS:Rendering:Color,
  {c0a80dc3-8beb-48a3-97e9-393a05212b48}, !- Handle
  PrimarySchool Office,                   !- Name
  120,                                    !- Rendering Red Value
  230,                                    !- Rendering Green Value
  199;                                    !- Rendering Blue Value

OS:SpaceType,
  {44753af0-6094-4496-99ff-8eade0697672}, !- Handle
  PrimarySchool Restroom,                 !- Name
  ,                                       !- Default Construction Set Name
  ,                                       !- Default Schedule Set Name
  {d900c9bc-5702-4f78-b105-339881a5ec2c}, !- Group Rendering Name
  ,                                       !- Design Specification Outdoor Air Object Name
  ,                                       !- Standards Template
  PrimarySchool,                          !- Standards Building Type
  Restroom;                               !- Standards Space Type

OS:Rendering:Color,
  {d900c9bc-5702-4f78-b105-339881a5ec2c}, !- Handle
  PrimarySchool Restroom,                 !- Name
  169,                                    !- Rendering Red Value
  169,                                    !- Rendering Green Value
  31;                                     !- Rendering Blue Value

OS:Building,
  {f55557f2-62d3-485f-b624-038c55837aa2}, !- Handle
  90.1-2004|PrimarySchool,                !- Name
  ,                                       !- Building Sector Type
  ,                                       !- North Axis {deg}
  ,                                       !- Nominal Floor to Floor Height {m}
  ,                                       !- Space Type Name
  ,                                       !- Default Construction Set Name
  ;                                       !- Default Schedule Set Name

OS:Site,
  {ae78ee0f-63a1-4285-aec7-1ab62be8aaea}, !- Handle
  Site 1,                                 !- Name
  ,                                       !- Latitude {deg}
  ,                                       !- Longitude {deg}
  ,                                       !- Time Zone {hr}
  ,                                       !- Elevation {m}
  ;                                       !- Terrain

OS:BuildingStory,
  {03ca1340-e12f-4f17-a4e2-e3be2e7e185b}, !- Handle
  Story Ground,                           !- Name
  0,                                      !- Nominal Z Coordinate {m}
  3.9624,                                 !- Nominal Floor to Floor Height {m}
  ,                                       !- Default Construction Set Name
  ,                                       !- Default Schedule Set Name
  ;                                       !- Group Rendering Name

OS:Space,
  {28e544ad-ec14-470f-bee8-edf7883538de}, !- Handle
  PrimarySchool Corridor A end_a - Story Ground, !- Name
  {cb946e14-5bc2-42fd-b004-eb15c21e3900}, !- Space Type Name
  ,                                       !- Default Construction Set Name
  ,                                       !- Default Schedule Set Name
  -0,                                     !- Direction of Relative North {deg}
  -13.1982271536748,                      !- X Origin {m}
  -8.7988181024499,                       !- Y Origin {m}
  0,                                      !- Z Origin {m}
  {03ca1340-e12f-4f17-a4e2-e3be2e7e185b}, !- Building Story Name
  {f137ff4f-57b2-4d9f-abb9-486784b5c0ca}; !- Thermal Zone Name

OS:Surface,
  {0c71eb6c-6a70-4247-a2ca-fbee6c6495eb}, !- Handle
  Surface 1,                              !- Name
  Floor,                                  !- Surface Type
  ,                                       !- Construction Name
  {28e544ad-ec14-470f-bee8-edf7883538de}, !- Space Name
  Ground,                                 !- Outside Boundary Condition
  ,                                       !- Outside Boundary Condition Object
  NoSun,                                  !- Sun Exposure
  NoWind,                                 !- Wind Exposure
  ,                                       !- View Factor to Ground
  ,                                       !- Number of Vertices
  4.61852778244065e-014, -3.5527136788005e-015, 0, !- X,Y,Z Vertex 1 {m}
  4.61852778244065e-014, 4.572, 0,        !- X,Y,Z Vertex 2 {m}
  4.572, 4.572, 0,                        !- X,Y,Z Vertex 3 {m}
  4.572, -3.5527136788005e-015, 0;        !- X,Y,Z Vertex 4 {m}

OS:Surface,
  {60084806-b315-4730-9e91-e9149055d3d9}, !- Handle
  Surface 2,                              !- Name
  Wall,                                   !- Surface Type
  ,                                       !- Construction Name
  {28e544ad-ec14-470f-bee8-edf7883538de}, !- Space Name
  Outdoors,                               !- Outside Boundary Condition
  ,                                       !- Outside Boundary Condition Object
  SunExposed,                             !- Sun Exposure
  WindExposed,                            !- Wind Exposure
  ,                                       !- View Factor to Ground
  ,                                       !- Number of Vertices
  4.61852778244065e-014, 4.572, 3.9624,   !- X,Y,Z Vertex 1 {m}
  4.61852778244065e-014, 4.572, 0,        !- X,Y,Z Vertex 2 {m}
  4.61852778244065e-014, -3.5527136788005e-015, 0, !- X,Y,Z Vertex 3 {m}
  4.61852778244065e-014, -3.5527136788005e-015, 3.9624; !- X,Y,Z Vertex 4 {m}

OS:Surface,
  {27b36529-904c-4957-9fa7-262aceba66f7}, !- Handle
  Surface 3,                              !- Name
  Wall,                                   !- Surface Type
  ,                                       !- Construction Name
  {28e544ad-ec14-470f-bee8-edf7883538de}, !- Space Name
  Surface,                                !- Outside Boundary Condition
  {1c698a9c-768d-40c8-bd0a-c4a5b2e59144}, !- Outside Boundary Condition Object
  NoSun,                                  !- Sun Exposure
  NoWind,                                 !- Wind Exposure
  ,                                       !- View Factor to Ground
  ,                                       !- Number of Vertices
  4.572, 4.572, 3.9624,                   !- X,Y,Z Vertex 1 {m}
  4.572, 4.572, 0,                        !- X,Y,Z Vertex 2 {m}
  4.61852778244065e-014, 4.572, 0,        !- X,Y,Z Vertex 3 {m}
  4.61852778244065e-014, 4.572, 3.9624;   !- X,Y,Z Vertex 4 {m}

OS:Surface,
  {66cecaa9-d09f-4611-8c18-ebb4323eab30}, !- Handle
  Surface 4,                              !- Name
  Wall,                                   !- Surface Type
  ,                                       !- Construction Name
  {28e544ad-ec14-470f-bee8-edf7883538de}, !- Space Name
  Surface,                                !- Outside Boundary Condition
  {38349ffb-f4d7-4d84-8a88-e54bdb67d87e}, !- Outside Boundary Condition Object
  NoSun,                                  !- Sun Exposure
  NoWind,                                 !- Wind Exposure
  ,                                       !- View Factor to Ground
  ,                                       !- Number of Vertices
  4.572, -3.5527136788005e-015, 3.9624,   !- X,Y,Z Vertex 1 {m}
  4.572, -3.5527136788005e-015, 0,        !- X,Y,Z Vertex 2 {m}
  4.572, 4.572, 0,                        !- X,Y,Z Vertex 3 {m}
  4.572, 4.572, 3.9624;                   !- X,Y,Z Vertex 4 {m}

OS:Surface,
  {d8445c46-96a2-4345-b0f0-fefa1d169ceb}, !- Handle
  Surface 5,                              !- Name
  Wall,                                   !- Surface Type
  ,                                       !- Construction Name
  {28e544ad-ec14-470f-bee8-edf7883538de}, !- Space Name
  Outdoors,                               !- Outside Boundary Condition
  ,                                       !- Outside Boundary Condition Object
  SunExposed,                             !- Sun Exposure
  WindExposed,                            !- Wind Exposure
  ,                                       !- View Factor to Ground
  ,                                       !- Number of Vertices
  4.61852778244065e-014, -3.5527136788005e-015, 3.9624, !- X,Y,Z Vertex 1 {m}
  4.61852778244065e-014, -3.5527136788005e-015, 0, !- X,Y,Z Vertex 2 {m}
  4.572, -3.5527136788005e-015, 0,        !- X,Y,Z Vertex 3 {m}
  4.572, -3.5527136788005e-015, 3.9624;   !- X,Y,Z Vertex 4 {m}

OS:Surface,
  {e95d0479-d117-47d9-84e1-a92878527140}, !- Handle
  Surface 6,                              !- Name
  RoofCeiling,                            !- Surface Type
  ,                                       !- Construction Name
  {28e544ad-ec14-470f-bee8-edf7883538de}, !- Space Name
  Surface,                                !- Outside Boundary Condition
  {49b6ca6e-358d-4044-926a-e217da8f00b8}, !- Outside Boundary Condition Object
  NoSun,                                  !- Sun Exposure
  NoWind,                                 !- Wind Exposure
  ,                                       !- View Factor to Ground
  ,                                       !- Number of Vertices
  4.572, -3.5527136788005e-015, 3.9624,   !- X,Y,Z Vertex 1 {m}
  4.572, 4.572, 3.9624,                   !- X,Y,Z Vertex 2 {m}
  4.61852778244065e-014, 4.572, 3.9624,   !- X,Y,Z Vertex 3 {m}
  4.61852778244065e-014, -3.5527136788005e-015, 3.9624; !- X,Y,Z Vertex 4 {m}

OS:ThermalZone,
  {f137ff4f-57b2-4d9f-abb9-486784b5c0ca}, !- Handle
  Zone PrimarySchool Corridor A end_a - Story Ground, !- Name
  1,                                      !- Multiplier
  ,                                       !- Ceiling Height {m}
  ,                                       !- Volume {m3}
  ,                                       !- Floor Area {m2}
  ,                                       !- Zone Inside Convection Algorithm
  ,                                       !- Zone Outside Convection Algorithm
  ,                                       !- Zone Conditioning Equipment List Name
  {2a31c75a-5fd9-4886-bd9d-13dc070f0380}, !- Zone Air Inlet Port List
  {e4adf7a8-87c9-4c0f-b5b5-db2f6c693b6f}, !- Zone Air Exhaust Port List
  {7350dd5b-356e-475a-9cd3-f8d41ac979d5}, !- Zone Air Node Name
  {658d2a3f-17ed-45f7-8bb4-7ca264ebb1a8}, !- Zone Return Air Port List
  ,                                       !- Primary Daylighting Control Name
  ,                                       !- Fraction of Zone Controlled by Primary Daylighting Control
  ,                                       !- Secondary Daylighting Control Name
  ,                                       !- Fraction of Zone Controlled by Secondary Daylighting Control
  ,                                       !- Illuminance Map Name
  ,                                       !- Group Rendering Name
  ,                                       !- Thermostat Name
  No;                                     !- Use Ideal Air Loads

OS:Node,
  {ed4550a8-10fd-44ea-865d-91c111a70229}, !- Handle
  Node 1,                                 !- Name
  {7350dd5b-356e-475a-9cd3-f8d41ac979d5}, !- Inlet Port
  ;                                       !- Outlet Port

OS:Connection,
  {7350dd5b-356e-475a-9cd3-f8d41ac979d5}, !- Handle
  {bd47847a-3615-4c6a-83e8-c6391e33e74a}, !- Name
  {f137ff4f-57b2-4d9f-abb9-486784b5c0ca}, !- Source Object
  11,                                     !- Outlet Port
  {ed4550a8-10fd-44ea-865d-91c111a70229}, !- Target Object
  2;                                      !- Inlet Port

OS:PortList,
  {2a31c75a-5fd9-4886-bd9d-13dc070f0380}, !- Handle
  {0d6439fd-d47f-4a40-ad19-1b99836a9d86}, !- Name
  {f137ff4f-57b2-4d9f-abb9-486784b5c0ca}; !- HVAC Component

OS:PortList,
  {e4adf7a8-87c9-4c0f-b5b5-db2f6c693b6f}, !- Handle
  {ab17c769-2927-42f4-bfd7-e403f481c48a}, !- Name
  {f137ff4f-57b2-4d9f-abb9-486784b5c0ca}; !- HVAC Component

OS:PortList,
  {658d2a3f-17ed-45f7-8bb4-7ca264ebb1a8}, !- Handle
  {3ffd59ae-ae4b-40da-a5a0-5d3a6b62ed2d}, !- Name
  {f137ff4f-57b2-4d9f-abb9-486784b5c0ca}; !- HVAC Component

OS:Sizing:Zone,
  {b419ea2a-3ac3-445c-9cbb-f2fac515c8d1}, !- Handle
  {f137ff4f-57b2-4d9f-abb9-486784b5c0ca}, !- Zone or ZoneList Name
  SupplyAirTemperature,                   !- Zone Cooling Design Supply Air Temperature Input Method
  14,                                     !- Zone Cooling Design Supply Air Temperature {C}
  11.11,                                  !- Zone Cooling Design Supply Air Temperature Difference {deltaC}
  SupplyAirTemperature,                   !- Zone Heating Design Supply Air Temperature Input Method
  40,                                     !- Zone Heating Design Supply Air Temperature {C}
  11.11,                                  !- Zone Heating Design Supply Air Temperature Difference {deltaC}
  0.0085,                                 !- Zone Cooling Design Supply Air Humidity Ratio {kg-H2O/kg-air}
  0.008,                                  !- Zone Heating Design Supply Air Humidity Ratio {kg-H2O/kg-air}
  ,                                       !- Zone Heating Sizing Factor
  ,                                       !- Zone Cooling Sizing Factor
  DesignDay,                              !- Cooling Design Air Flow Method
  ,                                       !- Cooling Design Air Flow Rate {m3/s}
  ,                                       !- Cooling Minimum Air Flow per Zone Floor Area {m3/s-m2}
  ,                                       !- Cooling Minimum Air Flow {m3/s}
  ,                                       !- Cooling Minimum Air Flow Fraction
  DesignDay,                              !- Heating Design Air Flow Method
  ,                                       !- Heating Design Air Flow Rate {m3/s}
  ,                                       !- Heating Maximum Air Flow per Zone Floor Area {m3/s-m2}
  ,                                       !- Heating Maximum Air Flow {m3/s}
  ,                                       !- Heating Maximum Air Flow Fraction
  ,                                       !- Design Zone Air Distribution Effectiveness in Cooling Mode
  ,                                       !- Design Zone Air Distribution Effectiveness in Heating Mode
  No,                                     !- Account for Dedicated Outdoor Air System
  NeutralSupplyAir,                       !- Dedicated Outdoor Air System Control Strategy
  autosize,                               !- Dedicated Outdoor Air Low Setpoint Temperature for Design {C}
  autosize;                               !- Dedicated Outdoor Air High Setpoint Temperature for Design {C}

OS:ZoneHVAC:EquipmentList,
  {80f52071-248b-4951-9cd6-bca6be636192}, !- Handle
  Zone HVAC Equipment List 1,             !- Name
  {f137ff4f-57b2-4d9f-abb9-486784b5c0ca}; !- Thermal Zone

OS:Space,
  {48a15609-9efe-4c32-8dd7-c65d5e2fab54}, !- Handle
  PrimarySchool Corridor B end_a - Story Ground, !- Name
  {cb946e14-5bc2-42fd-b004-eb15c21e3900}, !- Space Type Name
  ,                                       !- Default Construction Set Name
  ,                                       !- Default Schedule Set Name
  -0,                                     !- Direction of Relative North {deg}
  -13.1982271536748,                      !- X Origin {m}
  -4.2268181024499,                       !- Y Origin {m}
  0,                                      !- Z Origin {m}
  {03ca1340-e12f-4f17-a4e2-e3be2e7e185b}, !- Building Story Name
  {7feb2b71-6713-4639-ba97-8b6ab3e214e6}; !- Thermal Zone Name

OS:Surface,
  {5fcf7c93-3576-4dad-bcab-73eda8876cb6}, !- Handle
  Surface 7,                              !- Name
  Floor,                                  !- Surface Type
  ,                                       !- Construction Name
  {48a15609-9efe-4c32-8dd7-c65d5e2fab54}, !- Space Name
  Ground,                                 !- Outside Boundary Condition
  ,                                       !- Outside Boundary Condition Object
  NoSun,                                  !- Sun Exposure
  NoWind,                                 !- Wind Exposure
  ,                                       !- View Factor to Ground
  ,                                       !- Number of Vertices
  4.61852778244065e-014, -3.5527136788005e-015, 0, !- X,Y,Z Vertex 1 {m}
  4.61852778244065e-014, 8.4536362048998, 0, !- X,Y,Z Vertex 2 {m}
  4.572, 8.4536362048998, 0,              !- X,Y,Z Vertex 3 {m}
  4.572, -3.5527136788005e-015, 0;        !- X,Y,Z Vertex 4 {m}

OS:Surface,
  {4e06dac8-0324-4874-ab05-2f2c8a853a2d}, !- Handle
  Surface 8,                              !- Name
  Wall,                                   !- Surface Type
  ,                                       !- Construction Name
  {48a15609-9efe-4c32-8dd7-c65d5e2fab54}, !- Space Name
  Outdoors,                               !- Outside Boundary Condition
  ,                                       !- Outside Boundary Condition Object
  SunExposed,                             !- Sun Exposure
  WindExposed,                            !- Wind Exposure
  ,                                       !- View Factor to Ground
  ,                                       !- Number of Vertices
  4.61852778244065e-014, 8.4536362048998, 3.9624, !- X,Y,Z Vertex 1 {m}
  4.61852778244065e-014, 8.4536362048998, 0, !- X,Y,Z Vertex 2 {m}
  4.61852778244065e-014, -3.5527136788005e-015, 0, !- X,Y,Z Vertex 3 {m}
  4.61852778244065e-014, -3.5527136788005e-015, 3.9624; !- X,Y,Z Vertex 4 {m}

OS:Surface,
  {8c182f47-3b60-43ed-ae28-cce0da6ca93e}, !- Handle
  Surface 9,                              !- Name
  Wall,                                   !- Surface Type
  ,                                       !- Construction Name
  {48a15609-9efe-4c32-8dd7-c65d5e2fab54}, !- Space Name
  Surface,                                !- Outside Boundary Condition
  {679e3cfa-6c47-480b-bb8d-d098346cf14b}, !- Outside Boundary Condition Object
  NoSun,                                  !- Sun Exposure
  NoWind,                                 !- Wind Exposure
  ,                                       !- View Factor to Ground
  ,                                       !- Number of Vertices
  4.572, 8.4536362048998, 3.9624,         !- X,Y,Z Vertex 1 {m}
  4.572, 8.4536362048998, 0,              !- X,Y,Z Vertex 2 {m}
  4.61852778244065e-014, 8.4536362048998, 0, !- X,Y,Z Vertex 3 {m}
  4.61852778244065e-014, 8.4536362048998, 3.9624; !- X,Y,Z Vertex 4 {m}

OS:Surface,
  {9c8b8b6d-2fa7-4fb0-956c-75a723252503}, !- Handle
  Surface 10,                             !- Name
  Wall,                                   !- Surface Type
  ,                                       !- Construction Name
  {48a15609-9efe-4c32-8dd7-c65d5e2fab54}, !- Space Name
  Surface,                                !- Outside Boundary Condition
  {67a8777a-c6a5-4aab-839c-b7a9a3edac0c}, !- Outside Boundary Condition Object
  NoSun,                                  !- Sun Exposure
  NoWind,                                 !- Wind Exposure
  ,                                       !- View Factor to Ground
  ,                                       !- Number of Vertices
  4.572, -3.5527136788005e-015, 3.9624,   !- X,Y,Z Vertex 1 {m}
  4.572, -3.5527136788005e-015, 0,        !- X,Y,Z Vertex 2 {m}
  4.572, 8.4536362048998, 0,              !- X,Y,Z Vertex 3 {m}
  4.572, 8.4536362048998, 3.9624;         !- X,Y,Z Vertex 4 {m}

OS:Surface,
  {1c698a9c-768d-40c8-bd0a-c4a5b2e59144}, !- Handle
  Surface 11,                             !- Name
  Wall,                                   !- Surface Type
  ,                                       !- Construction Name
  {48a15609-9efe-4c32-8dd7-c65d5e2fab54}, !- Space Name
  Surface,                                !- Outside Boundary Condition
  {27b36529-904c-4957-9fa7-262aceba66f7}, !- Outside Boundary Condition Object
  NoSun,                                  !- Sun Exposure
  NoWind,                                 !- Wind Exposure
  ,                                       !- View Factor to Ground
  ,                                       !- Number of Vertices
  4.61852778244065e-014, -3.5527136788005e-015, 3.9624, !- X,Y,Z Vertex 1 {m}
  4.61852778244065e-014, -3.5527136788005e-015, 0, !- X,Y,Z Vertex 2 {m}
  4.572, -3.5527136788005e-015, 0,        !- X,Y,Z Vertex 3 {m}
  4.572, -3.5527136788005e-015, 3.9624;   !- X,Y,Z Vertex 4 {m}

OS:Surface,
  {e784c132-a297-4790-9dcb-78e21d816824}, !- Handle
  Surface 12,                             !- Name
  RoofCeiling,                            !- Surface Type
  ,                                       !- Construction Name
  {48a15609-9efe-4c32-8dd7-c65d5e2fab54}, !- Space Name
  Surface,                                !- Outside Boundary Condition
  {0da6f66c-2c0d-4185-892a-1313325b2c1b}, !- Outside Boundary Condition Object
  NoSun,                                  !- Sun Exposure
  NoWind,                                 !- Wind Exposure
  ,                                       !- View Factor to Ground
  ,                                       !- Number of Vertices
  4.572, -3.5527136788005e-015, 3.9624,   !- X,Y,Z Vertex 1 {m}
  4.572, 8.4536362048998, 3.9624,         !- X,Y,Z Vertex 2 {m}
  4.61852778244065e-014, 8.4536362048998, 3.9624, !- X,Y,Z Vertex 3 {m}
  4.61852778244065e-014, -3.5527136788005e-015, 3.9624; !- X,Y,Z Vertex 4 {m}

OS:ThermalZone,
  {7feb2b71-6713-4639-ba97-8b6ab3e214e6}, !- Handle
  Zone PrimarySchool Corridor B end_a - Story Ground, !- Name
  1,                                      !- Multiplier
  ,                                       !- Ceiling Height {m}
  ,                                       !- Volume {m3}
  ,                                       !- Floor Area {m2}
  ,                                       !- Zone Inside Convection Algorithm
  ,                                       !- Zone Outside Convection Algorithm
  ,                                       !- Zone Conditioning Equipment List Name
  {3d3276ae-b3dd-4aa9-a405-83fe2399d950}, !- Zone Air Inlet Port List
  {79ef5d6e-920f-462a-adfd-9f77a8eb8b35}, !- Zone Air Exhaust Port List