
OS:Version,
  {0288305b-1774-4ada-9e63-d3fd88934d70}, !- Handle
  2.7.2;                                  !- Version Identifier

OS:SpaceType,
  {fbaab928-1844-47d8-881c-8376b589b813}, !- Handle
  Office WholeBuilding - Sm Office,       !- Name
  ,                                       !- Default Construction Set Name
  ,                                       !- Default Schedule Set Name
  {9ee9b695-26df-4eb9-9e0b-54f10e6a458c}, !- Group Rendering Name
  ,                                       !- Design Specification Outdoor Air Object Name
  ,                                       !- Standards Template
  Office,                                 !- Standards Building Type
  WholeBuilding - Sm Office;              !- Standards Space Type

OS:Rendering:Color,
  {9ee9b695-26df-4eb9-9e0b-54f10e6a458c}, !- Handle
  Office WholeBuilding - Sm Office,       !- Name
  120,                                    !- Rendering Red Value
  230,                                    !- Rendering Green Value
  199;                                    !- Rendering Blue Value

OS:Building,
  {bb7a51d6-dc37-4593-a73f-59ef0f37243e}, !- Handle
  90.1-2004|SmallOffice,                  !- Name
  ,                                       !- Building Sector Type
  ,                                       !- North Axis {deg}
  ,                                       !- Nominal Floor to Floor Height {m}
  ,                                       !- Space Type Name
  ,                                       !- Default Construction Set Name
  ;                                       !- Default Schedule Set Name

OS:Site,
  {c813e6d5-78be-4640-ad86-5d62d47af650}, !- Handle
  Site 1,                                 !- Name
  ,                                       !- Latitude {deg}
  ,                                       !- Longitude {deg}
  ,                                       !- Time Zone {hr}
  ,                                       !- Elevation {m}
  ;                                       !- Terrain

OS:BuildingStory,
  {98fdc56c-1dfb-4d7f-beb2-094b65cdc643}, !- Handle
  Story Ground,                           !- Name
  0,                                      !- Nominal Z Coordinate {m}
  3.048,                                  !- Nominal Floor to Floor Height {m}
  ,                                       !- Default Construction Set Name
  ,                                       !- Default Schedule Set Name
  ;                                       !- Group Rendering Name

OS:Space,
  {5b0c4202-d03e-4b09-9740-3f828f97b045}, !- Handle
  Office WholeBuilding - Sm Office A end_a - Story Ground, !- Name
  {fbaab928-1844-47d8-881c-8376b589b813}, !- Space Type Name
  ,                                       !- Default Construction Set Name
  ,                                       !- Default Schedule Set Name
  -0,                                     !- Direction of Relative North {deg}
  -18.6651118400078,                      !- X Origin {m}
  -12.4434078933385,                      !- Y Origin {m}
  0,                                      !- Z Origin {m}
  {98fdc56c-1dfb-4d7f-beb2-094b65cdc643}, !- Building Story Name
  {729100f5-15de-471f-8404-3503bf65cd5b}; !- Thermal Zone Name

OS:Surface,
  {9a4e4c20-85d1-46ca-b964-f3ca63b34c1b}, !- Handle
  Surface 1,                              !- Name
  Floor,                                  !- Surface Type
  ,                                       !- Construction Name
  {5b0c4202-d03e-4b09-9740-3f828f97b045}, !- Space Name
  Ground,                                 !- Outside Boundary Condition
  ,                                       !- Outside Boundary Condition Object
  NoSun,                                  !- Sun Exposure
  NoWind,                                 !- Wind Exposure
  ,                                       !- View Factor to Ground
  ,                                       !- Number of Vertices
  1.77635683940025e-014, 4.44089209850063e-014, 0, !- X,Y,Z Vertex 1 {m}
  1.77635683940025e-014, 4.57199999999999, 0, !- X,Y,Z Vertex 2 {m}
  4.57200000000002, 4.57199999999999, 0,  !- X,Y,Z Vertex 3 {m}
  4.57200000000002, 4.44089209850063e-014, 0; !- X,Y,Z Vertex 4 {m}

OS:Surface,
  {80c9c4ee-35c1-499a-b942-58eb0932a396}, !- Handle
  Surface 2,                              !- Name
  Wall,                                   !- Surface Type
  ,                                       !- Construction Name
  {5b0c4202-d03e-4b09-9740-3f828f97b045}, !- Space Name
  Outdoors,                               !- Outside Boundary Condition
  ,                                       !- Outside Boundary Condition Object
  SunExposed,                             !- Sun Exposure
  WindExposed,                            !- Wind Exposure
  ,                                       !- View Factor to Ground
  ,                                       !- Number of Vertices
  1.77635683940025e-014, 4.57199999999999, 3.048, !- X,Y,Z Vertex 1 {m}
  1.77635683940025e-014, 4.57199999999999, 0, !- X,Y,Z Vertex 2 {m}
  1.77635683940025e-014, 4.44089209850063e-014, 0, !- X,Y,Z Vertex 3 {m}
  1.77635683940025e-014, 4.44089209850063e-014, 3.048; !- X,Y,Z Vertex 4 {m}

OS:Surface,
  {e0da8bd3-2275-48a4-a737-1e37cc52ef72}, !- Handle
  Surface 3,                              !- Name
  Wall,                                   !- Surface Type
  ,                                       !- Construction Name
  {5b0c4202-d03e-4b09-9740-3f828f97b045}, !- Space Name
  Surface,                                !- Outside Boundary Condition
  {9d3dfaff-1d44-4d61-acbe-ce660805b114}, !- Outside Boundary Condition Object
  NoSun,                                  !- Sun Exposure
  NoWind,                                 !- Wind Exposure
  ,                                       !- View Factor to Ground
  ,                                       !- Number of Vertices
  4.57200000000002, 4.57199999999999, 3.048, !- X,Y,Z Vertex 1 {m}
  4.57200000000002, 4.57199999999999, 0,  !- X,Y,Z Vertex 2 {m}
  1.77635683940025e-014, 4.57199999999999, 0, !- X,Y,Z Vertex 3 {m}
  1.77635683940025e-014, 4.57199999999999, 3.048; !- X,Y,Z Vertex 4 {m}

OS:Surface,
  {c0ea23a6-3266-4ffc-8c7a-040071e2fc84}, !- Handle
  Surface 4,                              !- Name
  Wall,                                   !- Surface Type
  ,                                       !- Construction Name
  {5b0c4202-d03e-4b09-9740-3f828f97b045}, !- Space Name
  Surface,                                !- Outside Boundary Condition
  {b5dcfe9f-87d0-492f-b8e4-92a5fd7740c6}, !- Outside Boundary Condition Object
  NoSun,                                  !- Sun Exposure
  NoWind,                                 !- Wind Exposure
  ,                                       !- View Factor to Ground
  ,                                       !- Number of Vertices
  4.57200000000002, 4.44089209850063e-014, 3.048, !- X,Y,Z Vertex 1 {m}
  4.57200000000002, 4.44089209850063e-014, 0, !- X,Y,Z Vertex 2 {m}
  4.57200000000002, 4.57199999999999, 0,  !- X,Y,Z Vertex 3 {m}
  4.57200000000002, 4.57199999999999, 3.048; !- X,Y,Z Vertex 4 {m}

OS:Surface,
  {05fd5e09-1cc1-4dd5-a8cb-45670618677d}, !- Handle
  Surface 5,                              !- Name
  Wall,                                   !- Surface Type
  ,                                       !- Construction Name
  {5b0c4202-d03e-4b09-9740-3f828f97b045}, !- Space Name
  Outdoors,                               !- Outside Boundary Condition
  ,                                       !- Outside Boundary Condition Object
  SunExposed,                             !- Sun Exposure
  WindExposed,                            !- Wind Exposure
  ,                                       !- View Factor to Ground
  ,                                       !- Number of Vertices
  1.77635683940025e-014, 4.44089209850063e-014, 3.048, !- X,Y,Z Vertex 1 {m}
  1.77635683940025e-014, 4.44089209850063e-014, 0, !- X,Y,Z Vertex 2 {m}
  4.57200000000002, 4.44089209850063e-014, 0, !- X,Y,Z Vertex 3 {m}
  4.57200000000002, 4.44089209850063e-014, 3.048; !- X,Y,Z Vertex 4 {m}

OS:Surface,
  {58cde73b-766c-4997-a37f-d60d1164b087}, !- Handle
  Surface 6,                              !- Name
  RoofCeiling,                            !- Surface Type
  ,                                       !- Construction Name
  {5b0c4202-d03e-4b09-9740-3f828f97b045}, !- Space Name
  Outdoors,                               !- Outside Boundary Condition
  ,                                       !- Outside Boundary Condition Object
  SunExposed,                             !- Sun Exposure
  WindExposed,                            !- Wind Exposure
  ,                                       !- View Factor to Ground
  ,                                       !- Number of Vertices
  4.57200000000002, 4.44089209850063e-014, 3.048, !- X,Y,Z Vertex 1 {m}
  4.57200000000002, 4.57199999999999, 3.048, !- X,Y,Z Vertex 2 {m}
  1.77635683940025e-014, 4.57199999999999, 3.048, !- X,Y,Z Vertex 3 {m}
  1.77635683940025e-014, 4.44089209850063e-014, 3.048; !- X,Y,Z Vertex 4 {m}

OS:ThermalZone,
  {729100f5-15de-471f-8404-3503bf65cd5b}, !- Handle
  Zone Office WholeBuilding - Sm Office A end_a - Story Ground, !- Name
  1,                                      !- Multiplier
  ,                                       !- Ceiling Height {m}
  ,                                       !- Volume {m3}
  ,                                       !- Floor Area {m2}
  ,                                       !- Zone Inside Convection Algorithm
  ,                                       !- Zone Outside Convection Algorithm
  ,                                       !- Zone Conditioning Equipment List Name
  {c63c6fda-8718-49a1-a2bb-9438d1c825f3}, !- Zone Air Inlet Port List
  {c2dc712a-daba-483c-98e4-2a604a6e5162}, !- Zone Air Exhaust Port List
  {a57a5003-50ef-4ff9-9dec-01a236f470ac}, !- Zone Air Node Name
  {65312e6d-1590-47b8-9735-ffba89e8f5a7}, !- Zone Return Air Port List
  ,                                       !- Primary Daylighting Control Name
  ,                                       !- Fraction of Zone Controlled by Primary Daylighting Control
  ,                                       !- Secondary Daylighting Control Name
  ,                                       !- Fraction of Zone Controlled by Secondary Daylighting Control
  ,                                       !- Illuminance Map Name
  ,                                       !- Group Rendering Name
  ,                                       !- Thermostat Name
  No;                                     !- Use Ideal Air Loads

OS:Node,
  {4bfa78c3-25ed-4ef3-ab63-89a363a0afff}, !- Handle
  Node 1,                                 !- Name
  {a57a5003-50ef-4ff9-9dec-01a236f470ac}, !- Inlet Port
  ;                                       !- Outlet Port

OS:Connection,
  {a57a5003-50ef-4ff9-9dec-01a236f470ac}, !- Handle
  {376c2565-336b-4676-9a92-59b80b546583}, !- Name
  {729100f5-15de-471f-8404-3503bf65cd5b}, !- Source Object
  11,                                     !- Outlet Port
  {4bfa78c3-25ed-4ef3-ab63-89a363a0afff}, !- Target Object
  2;                                      !- Inlet Port

OS:PortList,
  {c63c6fda-8718-49a1-a2bb-9438d1c825f3}, !- Handle
  {f2421b6f-d574-4cec-8702-94c5cc2eaa36}, !- Name
  {729100f5-15de-471f-8404-3503bf65cd5b}; !- HVAC Component

OS:PortList,
  {c2dc712a-daba-483c-98e4-2a604a6e5162}, !- Handle
  {2fae5014-4ccc-4935-ab4f-13206f68b5cd}, !- Name
  {729100f5-15de-471f-8404-3503bf65cd5b}; !- HVAC Component

OS:PortList,
  {65312e6d-1590-47b8-9735-ffba89e8f5a7}, !- Handle
  {1b42ebf9-241f-489c-bd05-4379e85ec47e}, !- Name
  {729100f5-15de-471f-8404-3503bf65cd5b}; !- HVAC Component

OS:Sizing:Zone,
  {3b91dcb9-0047-4b23-86ae-6ae8c1616d84}, !- Handle
  {729100f5-15de-471f-8404-3503bf65cd5b}, !- Zone or ZoneList Name
  SupplyAirTemperature,                   !- Zone Cooling Design Supply Air Temperature Input Method
  14,                                     !- Zone Cooling Design Supply Air Temperature {C}
  11.11,                                  !- Zone Cooling Design Supply Air Temperature Difference {deltaC}
  SupplyAirTemperature,                   !- Zone Heating Design Supply Air Temperature Input Method
  40,                                     !- Zone Heating Design Supply Air Temperature {C}
  11.11,                                  !- Zone Heating Design Supply Air Temperature Difference {deltaC}
  0.0085,                                 !- Zone Cooling Design Supply Air Humidity Ratio {kg-H2O/kg-air}
  0.008,                                  !- Zone Heating Design Supply Air Humidity Ratio {kg-H2O/kg-air}
  ,                                       !- Zone Heating Sizing Factor
  ,                                       !- Zone Cooling Sizing Factor
  DesignDay,                              !- Cooling Design Air Flow Method
  ,                                       !- Cooling Design Air Flow Rate {m3/s}
  ,                                       !- Cooling Minimum Air Flow per Zone Floor Area {m3/s-m2}
  ,                                       !- Cooling Minimum Air Flow {m3/s}
  ,                                       !- Cooling Minimum Air Flow Fraction
  DesignDay,                              !- Heating Design Air Flow Method
  ,                                       !- Heating Design Air Flow Rate {m3/s}
  ,                                       !- Heating Maximum Air Flow per Zone Floor Area {m3/s-m2}
  ,                                       !- Heating Maximum Air Flow {m3/s}
  ,                                       !- Heating Maximum Air Flow Fraction
  ,                                       !- Design Zone Air Distribution Effectiveness in Cooling Mode
  ,                                       !- Design Zone Air Distribution Effectiveness in Heating Mode
  No,                                     !- Account for Dedicated Outdoor Air System
  NeutralSupplyAir,                       !- Dedicated Outdoor Air System Control Strategy
  autosize,                               !- Dedicated Outdoor Air Low Setpoint Temperature for Design {C}
  autosize;                               !- Dedicated Outdoor Air High Setpoint Temperature for Design {C}

OS:ZoneHVAC:EquipmentList,
  {c9ae40dc-97ab-4376-af77-660aab04e40c}, !- Handle
  Zone HVAC Equipment List 1,             !- Name
  {729100f5-15de-471f-8404-3503bf65cd5b}; !- Thermal Zone

OS:Space,
  {e252fd38-026a-4ec0-ab20-eeb13c8fa2cd}, !- Handle
  Office WholeBuilding - Sm Office B end_a - Story Ground, !- Name
  {fbaab928-1844-47d8-881c-8376b589b813}, !- Space Type Name
  ,                                       !- Default Construction Set Name
  ,                                       !- Default Schedule Set Name
  -0,                                     !- Direction of Relative North {deg}
  -18.6651118400078,                      !- X Origin {m}
  -7.87140789333855,                      !- Y Origin {m}
  0,                                      !- Z Origin {m}
  {98fdc56c-1dfb-4d7f-beb2-094b65cdc643}, !- Building Story Name
  {20311e79-3290-417c-89f6-6694100e94f0}; !- Thermal Zone Name

OS:Surface,
  {36f8ec32-d86b-480c-89ab-d50b71abe15c}, !- Handle
  Surface 7,                              !- Name
  Floor,                                  !- Surface Type
  ,                                       !- Construction Name
  {e252fd38-026a-4ec0-ab20-eeb13c8fa2cd}, !- Space Name
  Ground,                                 !- Outside Boundary Condition
  ,                                       !- Outside Boundary Condition Object
  NoSun,                                  !- Sun Exposure
  NoWind,                                 !- Wind Exposure
  ,                                       !- View Factor to Ground
  ,                                       !- Number of Vertices
  1.77635683940025e-014, -5.32907051820075e-015, 0, !- X,Y,Z Vertex 1 {m}
  1.77635683940025e-014, 15.7428157866771, 0, !- X,Y,Z Vertex 2 {m}
  4.57200000000002, 15.7428157866771, 0,  !- X,Y,Z Vertex 3 {m}
  4.57200000000002, -5.32907051820075e-015, 0; !- X,Y,Z Vertex 4 {m}

OS:Surface,
  {8c220b4a-07d9-494f-9765-e2b23e754316}, !- Handle
  Surface 8,                              !- Name
  Wall,                                   !- Surface Type
  ,                                       !- Construction Name
  {e252fd38-026a-4ec0-ab20-eeb13c8fa2cd}, !- Space Name
  Outdoors,                               !- Outside Boundary Condition
  ,                                       !- Outside Boundary Condition Object
  SunExposed,                             !- Sun Exposure
  WindExposed,                            !- Wind Exposure
  ,                                       !- View Factor to Ground
  ,                                       !- Number of Vertices
  1.77635683940025e-014, 15.7428157866771, 3.048, !- X,Y,Z Vertex 1 {m}
  1.77635683940025e-014, 15.7428157866771, 0, !- X,Y,Z Vertex 2 {m}
  1.77635683940025e-014, -5.32907051820075e-015, 0, !- X,Y,Z Vertex 3 {m}
  1.77635683940025e-014, -5.32907051820075e-015, 3.048; !- X,Y,Z Vertex 4 {m}

OS:Surface,
  {3ee826b0-8a4b-4ca1-ac9d-8af8bb6d47bf}, !- Handle
  Surface 9,                              !- Name
  Wall,                                   !- Surface Type
  ,                                       !- Construction Name
  {e252fd38-026a-4ec0-ab20-eeb13c8fa2cd}, !- Space Name
  Surface,                                !- Outside Boundary Condition
  {33fc7b95-98b4-43ce-a7cc-c34f9b9a9beb}, !- Outside Boundary Condition Object
  NoSun,                                  !- Sun Exposure
  NoWind,                                 !- Wind Exposure
  ,                                       !- View Factor to Ground
  ,                                       !- Number of Vertices
  4.57200000000002, 15.7428157866771, 3.048, !- X,Y,Z Vertex 1 {m}
  4.57200000000002, 15.7428157866771, 0,  !- X,Y,Z Vertex 2 {m}
  1.77635683940025e-014, 15.7428157866771, 0, !- X,Y,Z Vertex 3 {m}
  1.77635683940025e-014, 15.7428157866771, 3.048; !- X,Y,Z Vertex 4 {m}

OS:Surface,
  {6f96ef72-2093-423c-957a-210c4ea612cb}, !- Handle
  Surface 10,                             !- Name
  Wall,                                   !- Surface Type
  ,                                       !- Construction Name
  {e252fd38-026a-4ec0-ab20-eeb13c8fa2cd}, !- Space Name
  Surface,                                !- Outside Boundary Condition
  {294fb6d7-4454-48d0-b908-300a92732024}, !- Outside Boundary Condition Object
  NoSun,                                  !- Sun Exposure
  NoWind,                                 !- Wind Exposure
  ,                                       !- View Factor to Ground
  ,                                       !- Number of Vertices
  4.57200000000002, -5.32907051820075e-015, 3.048, !- X,Y,Z Vertex 1 {m}
  4.57200000000002, -5.32907051820075e-015, 0, !- X,Y,Z Vertex 2 {m}
  4.57200000000002, 15.7428157866771, 0,  !- X,Y,Z Vertex 3 {m}
  4.57200000000002, 15.7428157866771, 3.048; !- X,Y,Z Vertex 4 {m}

OS:Surface,
  {9d3dfaff-1d44-4d61-acbe-ce660805b114}, !- Handle
  Surface 11,                             !- Name
  Wall,                                   !- Surface Type
  ,                                       !- Construction Name
  {e252fd38-026a-4ec0-ab20-eeb13c8fa2cd}, !- Space Name
  Surface,                                !- Outside Boundary Condition
  {e0da8bd3-2275-48a4-a737-1e37cc52ef72}, !- Outside Boundary Condition Object
  NoSun,                                  !- Sun Exposure
  NoWind,                                 !- Wind Exposure
  ,                                       !- View Factor to Ground
  ,                                       !- Number of Vertices
  1.77635683940025e-014, -5.32907051820075e-015, 3.048, !- X,Y,Z Vertex 1 {m}
  1.77635683940025e-014, -5.32907051820075e-015, 0, !- X,Y,Z Vertex 2 {m}
  4.57200000000002, -5.32907051820075e-015, 0, !- X,Y,Z Vertex 3 {m}
  4.57200000000002, -5.32907051820075e-015, 3.048; !- X,Y,Z Vertex 4 {m}

OS:Surface,
  {8cfece6f-7696-466d-b963-e4c5b1d62c42}, !- Handle
  Surface 12,                             !- Name
  RoofCeiling,                            !- Surface Type
  ,                                       !- Construction Name
  {e252fd38-026a-4ec0-ab20-eeb13c8fa2cd}, !- Space Name
  Outdoors,                               !- Outside Boundary Condition
  ,                                       !- Outside Boundary Condition Object
  SunExposed,                             !- Sun Exposure
  WindExposed,                            !- Wind Exposure
  ,                                       !- View Factor to Ground
  ,                                       !- Number of Vertices
  4.57200000000002, -5.32907051820075e-015, 3.048, !- X,Y,Z Vertex 1 {m}
  4.57200000000002, 15.7428157866771, 3.048, !- X,Y,Z Vertex 2 {m}
  1.77635683940025e-014, 15.7428157866771, 3.048, !- X,Y,Z Vertex 3 {m}
  1.77635683940025e-014, -5.32907051820075e-015, 3.048; !- X,Y,Z Vertex 4 {m}

OS:ThermalZone,
  {20311e79-3290-417c-89f6-6694100e94f0}, !- Handle
  Zone Office WholeBuilding - Sm Office B end_a - Story Ground, !- Name
  1,                                      !- Multiplier
  ,                                       !- Ceiling Height {m}
  ,                                       !- Volume {m3}
  ,                                       !- Floor Area {m2}
  ,                                       !- Zone Inside Convection Algorithm
  ,                                       !- Zone Outside Convection Algorithm
  ,                                       !- Zone Conditioning Equipment List Name
  {d7dd967c-5a73-4a00-8ee7-23b97cce5968}, !- Zone Air Inlet Port List
  {95864d9d-6fe0-4de1-acf8-a1183a461bc2}, !- Zone Air Exhaust Port List
  {712861b5-95ec-4e3f-aef5-f98ce8aa1b05}, !- Zone Air Node Name
  {b76b73a3-010b-4229-a556-59437d05a845}, !- Zone Return Air Port List
  ,                                       !- Primary Daylighting Control Name
  ,                                       !- Fraction of Zone Controlled by Primary Daylighting Control
  ,                                       !- Secondary Daylighting Control Name
  ,                                       !- Fraction of Zone Controlled by Secondary Daylighting Control
  ,                                       !- Illuminance Map Name
  ,                                       !- Group Rendering Name
  ,                                       !- Thermostat Name
  No;                                     !- Use Ideal Air Loads

OS:Node,
  {430ab987-b5d7-44e3-81a3-3131526473b4}, !- Handle
  Node 2,                                 !- Name
  {712861b5-95ec-4e3f-aef5-f98ce8aa1b05}, !- Inlet Port
  ;                                       !- Outlet Port

OS:Connection,
  {712861b5-95ec-4e3f-aef5-f98ce8aa1b05}, !- Handle
  {0b90d6f4-8e10-4028-92ef-bf96d375ba27}, !- Name
  {20311e79-3290-417c-89f6-6694100e94f0}, !- Source Object
  11,                                     !- Outlet Port
  {430ab987-b5d7-44e3-81a3-3131526473b4}, !- Target Object
  2;                                      !- Inlet Port

OS:PortList,
  {d7dd967c-5a73-4a00-8ee7-23b97cce5968}, !- Handle
  {6d6ddf30-cd82-4881-a9d8-970db5a5591a}, !- Name
  {20311e79-3290-417c-89f6-6694100e94f0}; !- HVAC Component

OS:PortList,
  {95864d9d-6fe0-4de1-acf8-a1183a461bc2}, !- Handle
  {ff6f5ad2-2c2c-43b4-b062-0e80a8be3528}, !- Name
  {20311e79-3290-417c-89f6-6694100e94f0}; !- HVAC Component

OS:PortList,
  {b76b73a3-010b-4229-a556-59437d05a845}, !- Handle
  {e638490a-3777-43e1-8030-fa131de6d509}, !- Name
  {20311e79-3290-417c-89f6-6694100e94f0}; !- HVAC Component

OS:Sizing:Zone,
  {b71c579a-18ba-426b-8da3-4f28d75ccec9}, !- Handle
  {20311e79-3290-417c-89f6-6694100e94f0}, !- Zone or ZoneList Name
  SupplyAirTemperature,                   !- Zone Cooling Design Supply Air Temperature Input Method
  14,                                     !- Zone Cooling Design Supply Air Temperature {C}
  11.11,                                  !- Zone Cooling Design Supply Air Temperature Difference {deltaC}
  SupplyAirTemperature,                   !- Zone Heating Design Supply Air Temperature Input Method
  40,                                     !- Zone Heating Design Supply Air Temperature {C}
  11.11,                                  !- Zone Heating Design Supply Air Temperature Difference {deltaC}
  0.0085,                                 !- Zone Cooling Design Supply Air Humidity Ratio {kg-H2O/kg-air}
  0.008,                                  !- Zone Heating Design Supply Air Humidity Ratio {kg-H2O/kg-air}
  ,                                       !- Zone Heating Sizing Factor
  ,                                       !- Zone Cooling Sizing Factor
  DesignDay,                              !- Cooling Design Air Flow Method
  ,                                       !- Cooling Design Air Flow Rate {m3/s}
  ,                                       !- Cooling Minimum Air Flow per Zone Floor Area {m3/s-m2}
  ,                                       !- Cooling Minimum Air Flow {m3/s}
  ,                                       !- Cooling Minimum Air Flow Fraction
  DesignDay,                              !- Heating Design Air Flow Method
  ,                                       !- Heating Design Air Flow Rate {m3/s}
  ,                                       !- Heating Maximum Air Flow per Zone Floor Area {m3/s-m2}
  ,                                       !- Heating Maximum Air Flow {m3/s}
  ,                                       !- Heating Maximum Air Flow Fraction
  ,                                       !- Design Zone Air Distribution Effectiveness in Cooling Mode
  ,                                       !- Design Zone Air Distribution Effectiveness in Heating Mode
  No,                                     !- Account for Dedicated Outdoor Air System
  NeutralSupplyAir,                       !- Dedicated Outdoor Air System Control Strategy
  autosize,                               !- Dedicated Outdoor Air Low Setpoint Temperature for Design {C}
  autosize;                               !- Dedicated Outdoor Air High Setpoint Temperature for Design {C}

OS:ZoneHVAC:EquipmentList,
  {239418e9-9a19-42e8-8871-49ac0d1a3bb4}, !- Handle
  Zone HVAC Equipment List 2,             !- Name
  {20311e79-3290-417c-89f6-6694100e94f0}; !- Thermal Zone

OS:Space,
  {81e00abd-d099-4a88-a64b-8ac08acb3adc}, !- Handle
  Office WholeBuilding - Sm Office C end_a - Story Ground, !- Name
  {fbaab928-1844-47d8-881c-8376b589b813}, !- Space Type Name
  ,                                       !- Default Construction Set Name
  ,                                       !- Default Schedule Set Name
  -0,                                     !- Direction of Relative North {deg}
  -18.6651118400078,                      !- X Origin {m}
  7.87140789333855,                       !- Y Origin {m}
  0,                                      !- Z Origin {m}
  {98fdc56c-1dfb-4d7f-beb2-094b65cdc643}, !- Building Story Name
  {374bc1a2-4236-430c-a56f-cca8384a813d}; !- Thermal Zone Name

OS:Surface,
  {b002405e-9cfc-4480-97db-1758a2ec6996}, !- Handle
  Surface 13,                             !- Name
  Floor,                                  !- Surface Type
  ,                                       !- Construction Name
  {81e00abd-d099-4a88-a64b-8ac08acb3adc}, !- Space Name
  Ground,                                 !- Outside Boundary Condition
  ,                                       !- Outside Boundary Condition Object
  NoSun,                                  !- Sun Exposure
  NoWind,                                 !- Wind Exposure
  ,                                       !- View Factor to Ground
  ,                                       !- Number of Vertices
  1.77635683940025e-014, 5.32907051820075e-015, 0, !- X,Y,Z Vertex 1 {m}
  1.77635683940025e-014, 4.57199999999996, 0, !- X,Y,Z Vertex 2 {m}
  4.57200000000002, 4.57199999999996, 0,  !- X,Y,Z Vertex 3 {m}
  4.57200000000002, 5.32907051820075e-015, 0; !- X,Y,Z Vertex 4 {m}

OS:Surface,
  {668b9ad3-eac9-4a36-b4c8-7eab9898bdf2}, !- Handle
  Surface 14,                             !- Name
  Wall,                                   !- Surface Type
  ,                                       !- Construction Name
  {81e00abd-d099-4a88-a64b-8ac08acb3adc}, !- Space Name
  Outdoors,                               !- Outside Boundary Condition
  ,                                       !- Outside Boundary Condition Object
  SunExposed,                             !- Sun Exposure
  WindExposed,                            !- Wind Exposure
  ,                                       !- View Factor to Ground
  ,                                       !- Number of Vertices
  1.77635683940025e-014, 4.57199999999996, 3.048, !- X,Y,Z Vertex 1 {m}
  1.77635683940025e-014, 4.57199999999996, 0, !- X,Y,Z Vertex 2 {m}
  1.77635683940025e-014, 5.32907051820075e-015, 0, !- X,Y,Z Vertex 3 {m}
  1.77635683940025e-014, 5.32907051820075e-015, 3.048; !- X,Y,Z Vertex 4 {m}

OS:Surface,
  {3d2b4731-d204-4035-81a6-dfef169012e8}, !- Handle
  Surface 15,                             !- Name
  Wall,                                   !- Surface Type
  ,                                       !- Construction Name
  {81e00abd-d099-4a88-a64b-8ac08acb3adc}, !- Space Name
  Outdoors,                               !- Outside Boundary Condition
  ,                                       !- Outside Boundary Condition Object
  SunExposed,                             !- Sun Exposure
  WindExposed,                            !- Wind Exposure
  ,                                       !- View Factor to Ground
  ,                                       !- Number of Vertices
  4.57200000000002, 4.57199999999996, 3.048, !- X,Y,Z Vertex 1 {m}
  4.57200000000002, 4.57199999999996, 0,  !- X,Y,Z Vertex 2 {m}
  1.77635683940025e-014, 4.57199999999996, 0, !- X,Y,Z Vertex 3 {m}
  1.77635683940025e-014, 4.57199999999996, 3.048; !- X,Y,Z Vertex 4 {m}

OS:Surface,
  {345dcfb1-ac3a-43b0-986d-4d0c59c3c4cf}, !- Handle
  Surface 16,                             !- Name