
OS:Version,
  {f12117b6-7785-475b-81a7-27ac3c848964}, !- Handle
  2.7.2;                                  !- Version Identifier

OS:SpaceType,
  {c054d2c4-a5c5-489a-ae6b-bf741eca71e8}, !- Handle
  Office WholeBuilding - Sm Office,       !- Name
  ,                                       !- Default Construction Set Name
  ,                                       !- Default Schedule Set Name
  {29b31439-34cd-4e77-8b83-67df40a716a9}, !- Group Rendering Name
  ,                                       !- Design Specification Outdoor Air Object Name
  ,                                       !- Standards Template
  Office,                                 !- Standards Building Type
  WholeBuilding - Sm Office;              !- Standards Space Type

OS:Rendering:Color,
  {29b31439-34cd-4e77-8b83-67df40a716a9}, !- Handle
  Office WholeBuilding - Sm Office,       !- Name
  120,                                    !- Rendering Red Value
  230,                                    !- Rendering Green Value
  199;                                    !- Rendering Blue Value

OS:Building,
  {5739b5bd-8243-475a-a1d4-22f93be2f588}, !- Handle
  90.1-2004|SmallOffice,                  !- Name
  ,                                       !- Building Sector Type
  ,                                       !- North Axis {deg}
  ,                                       !- Nominal Floor to Floor Height {m}
  ,                                       !- Space Type Name
  ,                                       !- Default Construction Set Name
  ;                                       !- Default Schedule Set Name

OS:Site,
  {089810c7-25fc-449b-bd21-8fd108959a83}, !- Handle
  Site 1,                                 !- Name
  ,                                       !- Latitude {deg}
  ,                                       !- Longitude {deg}
  ,                                       !- Time Zone {hr}
  ,                                       !- Elevation {m}
  ;                                       !- Terrain

OS:BuildingStory,
  {cef49feb-ea59-4ad9-aa69-1233709b089a}, !- Handle
  Story Ground,                           !- Name
  0,                                      !- Nominal Z Coordinate {m}
  3.048,                                  !- Nominal Floor to Floor Height {m}
  ,                                       !- Default Construction Set Name
  ,                                       !- Default Schedule Set Name
  ;                                       !- Group Rendering Name

OS:Space,
  {4af301f4-58b1-4027-a891-5f8857e948e4}, !- Handle
  Office WholeBuilding - Sm Office A end_a - Story Ground, !- Name
  {c054d2c4-a5c5-489a-ae6b-bf741eca71e8}, !- Space Type Name
  ,                                       !- Default Construction Set Name
  ,                                       !- Default Schedule Set Name
  -0,                                     !- Direction of Relative North {deg}
  -18.6651118400078,                      !- X Origin {m}
  -12.4434078933385,                      !- Y Origin {m}
  0,                                      !- Z Origin {m}
  {cef49feb-ea59-4ad9-aa69-1233709b089a}, !- Building Story Name
  {0b9fd4dc-0d5a-46d0-9014-e807b3731c78}; !- Thermal Zone Name

OS:Surface,
  {6a48167d-7f78-4aba-ac9b-845313a33a50}, !- Handle
  Surface 1,                              !- Name
  Floor,                                  !- Surface Type
  ,                                       !- Construction Name
  {4af301f4-58b1-4027-a891-5f8857e948e4}, !- Space Name
  Ground,                                 !- Outside Boundary Condition
  ,                                       !- Outside Boundary Condition Object
  NoSun,                                  !- Sun Exposure
  NoWind,                                 !- Wind Exposure
  ,                                       !- View Factor to Ground
  ,                                       !- Number of Vertices
  1.77635683940025e-014, 4.44089209850063e-014, 0, !- X,Y,Z Vertex 1 {m}
  1.77635683940025e-014, 4.57199999999999, 0, !- X,Y,Z Vertex 2 {m}
  4.57200000000002, 4.57199999999999, 0,  !- X,Y,Z Vertex 3 {m}
  4.57200000000002, 4.44089209850063e-014, 0; !- X,Y,Z Vertex 4 {m}

OS:Surface,
  {e75b9801-4139-4280-b0b3-650ab9796dc8}, !- Handle
  Surface 2,                              !- Name
  Wall,                                   !- Surface Type
  ,                                       !- Construction Name
  {4af301f4-58b1-4027-a891-5f8857e948e4}, !- Space Name
  Outdoors,                               !- Outside Boundary Condition
  ,                                       !- Outside Boundary Condition Object
  SunExposed,                             !- Sun Exposure
  WindExposed,                            !- Wind Exposure
  ,                                       !- View Factor to Ground
  ,                                       !- Number of Vertices
  1.77635683940025e-014, 4.57199999999999, 3.048, !- X,Y,Z Vertex 1 {m}
  1.77635683940025e-014, 4.57199999999999, 0, !- X,Y,Z Vertex 2 {m}
  1.77635683940025e-014, 4.44089209850063e-014, 0, !- X,Y,Z Vertex 3 {m}
  1.77635683940025e-014, 4.44089209850063e-014, 3.048; !- X,Y,Z Vertex 4 {m}

OS:Surface,
  {6b42d5d0-1cd0-4e72-a64a-d7c5b67ab187}, !- Handle
  Surface 3,                              !- Name
  Wall,                                   !- Surface Type
  ,                                       !- Construction Name
  {4af301f4-58b1-4027-a891-5f8857e948e4}, !- Space Name
  Surface,                                !- Outside Boundary Condition
  {25cb77cd-fbc6-4f86-b14c-bccfa639c4d7}, !- Outside Boundary Condition Object
  NoSun,                                  !- Sun Exposure
  NoWind,                                 !- Wind Exposure
  ,                                       !- View Factor to Ground
  ,                                       !- Number of Vertices
  4.57200000000002, 4.57199999999999, 3.048, !- X,Y,Z Vertex 1 {m}
  4.57200000000002, 4.57199999999999, 0,  !- X,Y,Z Vertex 2 {m}
  1.77635683940025e-014, 4.57199999999999, 0, !- X,Y,Z Vertex 3 {m}
  1.77635683940025e-014, 4.57199999999999, 3.048; !- X,Y,Z Vertex 4 {m}

OS:Surface,
  {2bb81bd2-8dc0-4507-a791-2bb5618b0a3b}, !- Handle
  Surface 4,                              !- Name
  Wall,                                   !- Surface Type
  ,                                       !- Construction Name
  {4af301f4-58b1-4027-a891-5f8857e948e4}, !- Space Name
  Surface,                                !- Outside Boundary Condition
  {1d0d2e64-64c6-4c3d-88ea-066360f9e2ab}, !- Outside Boundary Condition Object
  NoSun,                                  !- Sun Exposure
  NoWind,                                 !- Wind Exposure
  ,                                       !- View Factor to Ground
  ,                                       !- Number of Vertices
  4.57200000000002, 4.44089209850063e-014, 3.048, !- X,Y,Z Vertex 1 {m}
  4.57200000000002, 4.44089209850063e-014, 0, !- X,Y,Z Vertex 2 {m}
  4.57200000000002, 4.57199999999999, 0,  !- X,Y,Z Vertex 3 {m}
  4.57200000000002, 4.57199999999999, 3.048; !- X,Y,Z Vertex 4 {m}

OS:Surface,
  {2231fda0-ef3a-4362-9933-2973ab32aaf8}, !- Handle
  Surface 5,                              !- Name
  Wall,                                   !- Surface Type
  ,                                       !- Construction Name
  {4af301f4-58b1-4027-a891-5f8857e948e4}, !- Space Name
  Outdoors,                               !- Outside Boundary Condition
  ,                                       !- Outside Boundary Condition Object
  SunExposed,                             !- Sun Exposure
  WindExposed,                            !- Wind Exposure
  ,                                       !- View Factor to Ground
  ,                                       !- Number of Vertices
  1.77635683940025e-014, 4.44089209850063e-014, 3.048, !- X,Y,Z Vertex 1 {m}
  1.77635683940025e-014, 4.44089209850063e-014, 0, !- X,Y,Z Vertex 2 {m}
  4.57200000000002, 4.44089209850063e-014, 0, !- X,Y,Z Vertex 3 {m}
  4.57200000000002, 4.44089209850063e-014, 3.048; !- X,Y,Z Vertex 4 {m}

OS:Surface,
  {ff68423e-366f-4fc9-9d3d-268d0dc1181d}, !- Handle
  Surface 6,                              !- Name
  RoofCeiling,                            !- Surface Type
  ,                                       !- Construction Name
  {4af301f4-58b1-4027-a891-5f8857e948e4}, !- Space Name
  Outdoors,                               !- Outside Boundary Condition
  ,                                       !- Outside Boundary Condition Object
  SunExposed,                             !- Sun Exposure
  WindExposed,                            !- Wind Exposure
  ,                                       !- View Factor to Ground
  ,                                       !- Number of Vertices
  4.57200000000002, 4.44089209850063e-014, 3.048, !- X,Y,Z Vertex 1 {m}
  4.57200000000002, 4.57199999999999, 3.048, !- X,Y,Z Vertex 2 {m}
  1.77635683940025e-014, 4.57199999999999, 3.048, !- X,Y,Z Vertex 3 {m}
  1.77635683940025e-014, 4.44089209850063e-014, 3.048; !- X,Y,Z Vertex 4 {m}

OS:ThermalZone,
  {0b9fd4dc-0d5a-46d0-9014-e807b3731c78}, !- Handle
  Zone Office WholeBuilding - Sm Office A end_a - Story Ground, !- Name
  1,                                      !- Multiplier
  ,                                       !- Ceiling Height {m}
  ,                                       !- Volume {m3}
  ,                                       !- Floor Area {m2}
  ,                                       !- Zone Inside Convection Algorithm
  ,                                       !- Zone Outside Convection Algorithm
  ,                                       !- Zone Conditioning Equipment List Name
  {d2d405d6-e42d-4a96-bf46-39e44fd3ec8d}, !- Zone Air Inlet Port List
  {8928e48d-5b44-4c3c-ab27-9b875c9065aa}, !- Zone Air Exhaust Port List
  {baac0047-a07e-4e0f-913c-844e52dd6943}, !- Zone Air Node Name
  {cde3453d-960c-4d15-821b-d5e0d01738cb}, !- Zone Return Air Port List
  ,                                       !- Primary Daylighting Control Name
  ,                                       !- Fraction of Zone Controlled by Primary Daylighting Control
  ,                                       !- Secondary Daylighting Control Name
  ,                                       !- Fraction of Zone Controlled by Secondary Daylighting Control
  ,                                       !- Illuminance Map Name
  ,                                       !- Group Rendering Name
  ,                                       !- Thermostat Name
  No;                                     !- Use Ideal Air Loads

OS:Node,
  {1770ddfa-516e-4211-9a08-17898bf68dbb}, !- Handle
  Node 1,                                 !- Name
  {baac0047-a07e-4e0f-913c-844e52dd6943}, !- Inlet Port
  ;                                       !- Outlet Port

OS:Connection,
  {baac0047-a07e-4e0f-913c-844e52dd6943}, !- Handle
  {50a678b0-7555-49c2-bc8c-64cde5f57e2a}, !- Name
  {0b9fd4dc-0d5a-46d0-9014-e807b3731c78}, !- Source Object
  11,                                     !- Outlet Port
  {1770ddfa-516e-4211-9a08-17898bf68dbb}, !- Target Object
  2;                                      !- Inlet Port

OS:PortList,
  {d2d405d6-e42d-4a96-bf46-39e44fd3ec8d}, !- Handle
  {fed3c797-5216-4356-8f00-ef5193546217}, !- Name
  {0b9fd4dc-0d5a-46d0-9014-e807b3731c78}; !- HVAC Component

OS:PortList,
  {8928e48d-5b44-4c3c-ab27-9b875c9065aa}, !- Handle
  {9cf52727-c561-40d8-b46b-941dbc2b5481}, !- Name
  {0b9fd4dc-0d5a-46d0-9014-e807b3731c78}; !- HVAC Component

OS:PortList,
  {cde3453d-960c-4d15-821b-d5e0d01738cb}, !- Handle
  {0b814b2b-7d53-4a56-bd76-0173fbfa7454}, !- Name
  {0b9fd4dc-0d5a-46d0-9014-e807b3731c78}; !- HVAC Component

OS:Sizing:Zone,
  {1680148f-3391-402e-a067-84f96a6bc52a}, !- Handle
  {0b9fd4dc-0d5a-46d0-9014-e807b3731c78}, !- Zone or ZoneList Name
  SupplyAirTemperature,                   !- Zone Cooling Design Supply Air Temperature Input Method
  14,                                     !- Zone Cooling Design Supply Air Temperature {C}
  11.11,                                  !- Zone Cooling Design Supply Air Temperature Difference {deltaC}
  SupplyAirTemperature,                   !- Zone Heating Design Supply Air Temperature Input Method
  40,                                     !- Zone Heating Design Supply Air Temperature {C}
  11.11,                                  !- Zone Heating Design Supply Air Temperature Difference {deltaC}
  0.0085,                                 !- Zone Cooling Design Supply Air Humidity Ratio {kg-H2O/kg-air}
  0.008,                                  !- Zone Heating Design Supply Air Humidity Ratio {kg-H2O/kg-air}
  ,                                       !- Zone Heating Sizing Factor
  ,                                       !- Zone Cooling Sizing Factor
  DesignDay,                              !- Cooling Design Air Flow Method
  ,                                       !- Cooling Design Air Flow Rate {m3/s}
  ,                                       !- Cooling Minimum Air Flow per Zone Floor Area {m3/s-m2}
  ,                                       !- Cooling Minimum Air Flow {m3/s}
  ,                                       !- Cooling Minimum Air Flow Fraction
  DesignDay,                              !- Heating Design Air Flow Method
  ,                                       !- Heating Design Air Flow Rate {m3/s}
  ,                                       !- Heating Maximum Air Flow per Zone Floor Area {m3/s-m2}
  ,                                       !- Heating Maximum Air Flow {m3/s}
  ,                                       !- Heating Maximum Air Flow Fraction
  ,                                       !- Design Zone Air Distribution Effectiveness in Cooling Mode
  ,                                       !- Design Zone Air Distribution Effectiveness in Heating Mode
  No,                                     !- Account for Dedicated Outdoor Air System
  NeutralSupplyAir,                       !- Dedicated Outdoor Air System Control Strategy
  autosize,                               !- Dedicated Outdoor Air Low Setpoint Temperature for Design {C}
  autosize;                               !- Dedicated Outdoor Air High Setpoint Temperature for Design {C}

OS:ZoneHVAC:EquipmentList,
  {41bdc239-9021-4c2f-a0c7-4476a5bd0114}, !- Handle
  Zone HVAC Equipment List 1,             !- Name
  {0b9fd4dc-0d5a-46d0-9014-e807b3731c78}; !- Thermal Zone

OS:Space,
  {d231f686-9cc3-4c71-8118-323f61ba07ea}, !- Handle
  Office WholeBuilding - Sm Office B end_a - Story Ground, !- Name
  {c054d2c4-a5c5-489a-ae6b-bf741eca71e8}, !- Space Type Name
  ,                                       !- Default Construction Set Name
  ,                                       !- Default Schedule Set Name
  -0,                                     !- Direction of Relative North {deg}
  -18.6651118400078,                      !- X Origin {m}
  -7.87140789333855,                      !- Y Origin {m}
  0,                                      !- Z Origin {m}
  {cef49feb-ea59-4ad9-aa69-1233709b089a}, !- Building Story Name
  {02f0f431-148b-4924-bd21-d466459fe1a3}; !- Thermal Zone Name

OS:Surface,
  {3ac04fbd-9403-4a5f-a67b-08643b9b4033}, !- Handle
  Surface 7,                              !- Name
  Floor,                                  !- Surface Type
  ,                                       !- Construction Name
  {d231f686-9cc3-4c71-8118-323f61ba07ea}, !- Space Name
  Ground,                                 !- Outside Boundary Condition
  ,                                       !- Outside Boundary Condition Object
  NoSun,                                  !- Sun Exposure
  NoWind,                                 !- Wind Exposure
  ,                                       !- View Factor to Ground
  ,                                       !- Number of Vertices
  1.77635683940025e-014, -5.32907051820075e-015, 0, !- X,Y,Z Vertex 1 {m}
  1.77635683940025e-014, 15.7428157866771, 0, !- X,Y,Z Vertex 2 {m}
  4.57200000000002, 15.7428157866771, 0,  !- X,Y,Z Vertex 3 {m}
  4.57200000000002, -5.32907051820075e-015, 0; !- X,Y,Z Vertex 4 {m}

OS:Surface,
  {cb38d0c1-ab3a-4aee-868e-49c510be289b}, !- Handle
  Surface 8,                              !- Name
  Wall,                                   !- Surface Type
  ,                                       !- Construction Name
  {d231f686-9cc3-4c71-8118-323f61ba07ea}, !- Space Name
  Outdoors,                               !- Outside Boundary Condition
  ,                                       !- Outside Boundary Condition Object
  SunExposed,                             !- Sun Exposure
  WindExposed,                            !- Wind Exposure
  ,                                       !- View Factor to Ground
  ,                                       !- Number of Vertices
  1.77635683940025e-014, 15.7428157866771, 3.048, !- X,Y,Z Vertex 1 {m}
  1.77635683940025e-014, 15.7428157866771, 0, !- X,Y,Z Vertex 2 {m}
  1.77635683940025e-014, -5.32907051820075e-015, 0, !- X,Y,Z Vertex 3 {m}
  1.77635683940025e-014, -5.32907051820075e-015, 3.048; !- X,Y,Z Vertex 4 {m}

OS:Surface,
  {10eeb6fe-b093-4179-9c6d-e3ae08757790}, !- Handle
  Surface 9,                              !- Name
  Wall,                                   !- Surface Type
  ,                                       !- Construction Name
  {d231f686-9cc3-4c71-8118-323f61ba07ea}, !- Space Name
  Surface,                                !- Outside Boundary Condition
  {fc69776b-079d-4076-bd56-8cf70cd7a2f6}, !- Outside Boundary Condition Object
  NoSun,                                  !- Sun Exposure
  NoWind,                                 !- Wind Exposure
  ,                                       !- View Factor to Ground
  ,                                       !- Number of Vertices
  4.57200000000002, 15.7428157866771, 3.048, !- X,Y,Z Vertex 1 {m}
  4.57200000000002, 15.7428157866771, 0,  !- X,Y,Z Vertex 2 {m}
  1.77635683940025e-014, 15.7428157866771, 0, !- X,Y,Z Vertex 3 {m}
  1.77635683940025e-014, 15.7428157866771, 3.048; !- X,Y,Z Vertex 4 {m}

OS:Surface,
  {53d01d47-33b5-45e1-80da-1aea83774823}, !- Handle
  Surface 10,                             !- Name
  Wall,                                   !- Surface Type
  ,                                       !- Construction Name
  {d231f686-9cc3-4c71-8118-323f61ba07ea}, !- Space Name
  Surface,                                !- Outside Boundary Condition
  {6ae2313e-fcd6-4d4a-86c5-2c13532e1361}, !- Outside Boundary Condition Object
  NoSun,                                  !- Sun Exposure
  NoWind,                                 !- Wind Exposure
  ,                                       !- View Factor to Ground
  ,                                       !- Number of Vertices
  4.57200000000002, -5.32907051820075e-015, 3.048, !- X,Y,Z Vertex 1 {m}
  4.57200000000002, -5.32907051820075e-015, 0, !- X,Y,Z Vertex 2 {m}
  4.57200000000002, 15.7428157866771, 0,  !- X,Y,Z Vertex 3 {m}
  4.57200000000002, 15.7428157866771, 3.048; !- X,Y,Z Vertex 4 {m}

OS:Surface,
  {25cb77cd-fbc6-4f86-b14c-bccfa639c4d7}, !- Handle
  Surface 11,                             !- Name
  Wall,                                   !- Surface Type
  ,                                       !- Construction Name
  {d231f686-9cc3-4c71-8118-323f61ba07ea}, !- Space Name
  Surface,                                !- Outside Boundary Condition
  {6b42d5d0-1cd0-4e72-a64a-d7c5b67ab187}, !- Outside Boundary Condition Object
  NoSun,                                  !- Sun Exposure
  NoWind,                                 !- Wind Exposure
  ,                                       !- View Factor to Ground
  ,                                       !- Number of Vertices
  1.77635683940025e-014, -5.32907051820075e-015, 3.048, !- X,Y,Z Vertex 1 {m}
  1.77635683940025e-014, -5.32907051820075e-015, 0, !- X,Y,Z Vertex 2 {m}
  4.57200000000002, -5.32907051820075e-015, 0, !- X,Y,Z Vertex 3 {m}
  4.57200000000002, -5.32907051820075e-015, 3.048; !- X,Y,Z Vertex 4 {m}

OS:Surface,
  {f37640e1-a892-4874-a0db-3e05566be130}, !- Handle
  Surface 12,                             !- Name
  RoofCeiling,                            !- Surface Type
  ,                                       !- Construction Name
  {d231f686-9cc3-4c71-8118-323f61ba07ea}, !- Space Name
  Outdoors,                               !- Outside Boundary Condition
  ,                                       !- Outside Boundary Condition Object
  SunExposed,                             !- Sun Exposure
  WindExposed,                            !- Wind Exposure
  ,                                       !- View Factor to Ground
  ,                                       !- Number of Vertices
  4.57200000000002, -5.32907051820075e-015, 3.048, !- X,Y,Z Vertex 1 {m}
  4.57200000000002, 15.7428157866771, 3.048, !- X,Y,Z Vertex 2 {m}
  1.77635683940025e-014, 15.7428157866771, 3.048, !- X,Y,Z Vertex 3 {m}
  1.77635683940025e-014, -5.32907051820075e-015, 3.048; !- X,Y,Z Vertex 4 {m}

OS:ThermalZone,
  {02f0f431-148b-4924-bd21-d466459fe1a3}, !- Handle
  Zone Office WholeBuilding - Sm Office B end_a - Story Ground, !- Name
  1,                                      !- Multiplier
  ,                                       !- Ceiling Height {m}
  ,                                       !- Volume {m3}
  ,                                       !- Floor Area {m2}
  ,                                       !- Zone Inside Convection Algorithm
  ,                                       !- Zone Outside Convection Algorithm
  ,                                       !- Zone Conditioning Equipment List Name
  {76c8e223-70a7-4625-93fa-55f49ec5ed61}, !- Zone Air Inlet Port List
  {c050c7f6-dbc5-4e93-85d6-b8d9afbf86fc}, !- Zone Air Exhaust Port List
  {4a6d9056-6b5a-4389-bdeb-a0440c0e4fcd}, !- Zone Air Node Name
  {7afe2b7a-b4cb-4651-b739-e9ec611f94f0}, !- Zone Return Air Port List
  ,                                       !- Primary Daylighting Control Name
  ,                                       !- Fraction of Zone Controlled by Primary Daylighting Control
  ,                                       !- Secondary Daylighting Control Name
  ,                                       !- Fraction of Zone Controlled by Secondary Daylighting Control
  ,                                       !- Illuminance Map Name
  ,                                       !- Group Rendering Name
  ,                                       !- Thermostat Name
  No;                                     !- Use Ideal Air Loads

OS:Node,
  {b23abfaf-f1fc-4dde-a1b5-e5e72ec82a58}, !- Handle
  Node 2,                                 !- Name
  {4a6d9056-6b5a-4389-bdeb-a0440c0e4fcd}, !- Inlet Port
  ;                                       !- Outlet Port

OS:Connection,
  {4a6d9056-6b5a-4389-bdeb-a0440c0e4fcd}, !- Handle
  {b598d3a9-8be5-4666-af18-cd26ad377f05}, !- Name
  {02f0f431-148b-4924-bd21-d466459fe1a3}, !- Source Object
  11,                                     !- Outlet Port
  {b23abfaf-f1fc-4dde-a1b5-e5e72ec82a58}, !- Target Object
  2;                                      !- Inlet Port

OS:PortList,
  {76c8e223-70a7-4625-93fa-55f49ec5ed61}, !- Handle
  {4ab0036b-b92b-4d43-8abc-2341795dcf55}, !- Name
  {02f0f431-148b-4924-bd21-d466459fe1a3}; !- HVAC Component

OS:PortList,
  {c050c7f6-dbc5-4e93-85d6-b8d9afbf86fc}, !- Handle
  {d23c115f-5322-44e8-b8e6-f31f05039531}, !- Name
  {02f0f431-148b-4924-bd21-d466459fe1a3}; !- HVAC Component

OS:PortList,
  {7afe2b7a-b4cb-4651-b739-e9ec611f94f0}, !- Handle
  {c9adf147-28af-4576-88ce-637eaa6d82c4}, !- Name
  {02f0f431-148b-4924-bd21-d466459fe1a3}; !- HVAC Component

OS:Sizing:Zone,
  {6c1a4f62-71dd-4dfe-ae9b-5f7dda989930}, !- Handle
  {02f0f431-148b-4924-bd21-d466459fe1a3}, !- Zone or ZoneList Name
  SupplyAirTemperature,                   !- Zone Cooling Design Supply Air Temperature Input Method
  14,                                     !- Zone Cooling Design Supply Air Temperature {C}
  11.11,                                  !- Zone Cooling Design Supply Air Temperature Difference {deltaC}
  SupplyAirTemperature,                   !- Zone Heating Design Supply Air Temperature Input Method
  40,                                     !- Zone Heating Design Supply Air Temperature {C}
  11.11,                                  !- Zone Heating Design Supply Air Temperature Difference {deltaC}
  0.0085,                                 !- Zone Cooling Design Supply Air Humidity Ratio {kg-H2O/kg-air}
  0.008,                                  !- Zone Heating Design Supply Air Humidity Ratio {kg-H2O/kg-air}
  ,                                       !- Zone Heating Sizing Factor
  ,                                       !- Zone Cooling Sizing Factor
  DesignDay,                              !- Cooling Design Air Flow Method
  ,                                       !- Cooling Design Air Flow Rate {m3/s}
  ,                                       !- Cooling Minimum Air Flow per Zone Floor Area {m3/s-m2}
  ,                                       !- Cooling Minimum Air Flow {m3/s}
  ,                                       !- Cooling Minimum Air Flow Fraction
  DesignDay,                              !- Heating Design Air Flow Method
  ,                                       !- Heating Design Air Flow Rate {m3/s}
  ,                                       !- Heating Maximum Air Flow per Zone Floor Area {m3/s-m2}
  ,                                       !- Heating Maximum Air Flow {m3/s}
  ,                                       !- Heating Maximum Air Flow Fraction
  ,                                       !- Design Zone Air Distribution Effectiveness in Cooling Mode
  ,                                       !- Design Zone Air Distribution Effectiveness in Heating Mode
  No,                                     !- Account for Dedicated Outdoor Air System
  NeutralSupplyAir,                       !- Dedicated Outdoor Air System Control Strategy
  autosize,                               !- Dedicated Outdoor Air Low Setpoint Temperature for Design {C}
  autosize;                               !- Dedicated Outdoor Air High Setpoint Temperature for Design {C}

OS:ZoneHVAC:EquipmentList,
  {d4659c97-9409-48a8-be01-1c224fdd38eb}, !- Handle
  Zone HVAC Equipment List 2,             !- Name
  {02f0f431-148b-4924-bd21-d466459fe1a3}; !- Thermal Zone

OS:Space,
  {6299f83b-7c63-4908-8e7f-ac749bca9360}, !- Handle
  Office WholeBuilding - Sm Office C end_a - Story Ground, !- Name
  {c054d2c4-a5c5-489a-ae6b-bf741eca71e8}, !- Space Type Name
  ,                                       !- Default Construction Set Name
  ,                                       !- Default Schedule Set Name
  -0,                                     !- Direction of Relative North {deg}
  -18.6651118400078,                      !- X Origin {m}
  7.87140789333855,                       !- Y Origin {m}
  0,                                      !- Z Origin {m}
  {cef49feb-ea59-4ad9-aa69-1233709b089a}, !- Building Story Name
  {5b721346-a9ec-4e1a-936d-b79e0e5226df}; !- Thermal Zone Name

OS:Surface,
  {b709a1b2-fd53-4c8a-be13-377ca04df3ce}, !- Handle
  Surface 13,                             !- Name
  Floor,                                  !- Surface Type
  ,                                       !- Construction Name
  {6299f83b-7c63-4908-8e7f-ac749bca9360}, !- Space Name
  Ground,                                 !- Outside Boundary Condition
  ,                                       !- Outside Boundary Condition Object
  NoSun,                                  !- Sun Exposure
  NoWind,                                 !- Wind Exposure
  ,                                       !- View Factor to Ground
  ,                                       !- Number of Vertices
  1.77635683940025e-014, 5.32907051820075e-015, 0, !- X,Y,Z Vertex 1 {m}
  1.77635683940025e-014, 4.57199999999996, 0, !- X,Y,Z Vertex 2 {m}
  4.57200000000002, 4.57199999999996, 0,  !- X,Y,Z Vertex 3 {m}
  4.57200000000002, 5.32907051820075e-015, 0; !- X,Y,Z Vertex 4 {m}

OS:Surface,
  {7a69b001-34d6-49c6-9169-10fb3a7e08e9}, !- Handle
  Surface 14,                             !- Name
  Wall,                                   !- Surface Type
  ,                                       !- Construction Name
  {6299f83b-7c63-4908-8e7f-ac749bca9360}, !- Space Name
  Outdoors,                               !- Outside Boundary Condition
  ,                                       !- Outside Boundary Condition Object
  SunExposed,                             !- Sun Exposure
  WindExposed,                            !- Wind Exposure
  ,                                       !- View Factor to Ground
  ,                                       !- Number of Vertices
  1.77635683940025e-014, 4.57199999999996, 3.048, !- X,Y,Z Vertex 1 {m}
  1.77635683940025e-014, 4.57199999999996, 0, !- X,Y,Z Vertex 2 {m}
  1.77635683940025e-014, 5.32907051820075e-015, 0, !- X,Y,Z Vertex 3 {m}
  1.77635683940025e-014, 5.32907051820075e-015, 3.048; !- X,Y,Z Vertex 4 {m}

OS:Surface,
  {166d1ce0-0cfc-47d0-aad7-9bf2f0c52093}, !- Handle
  Surface 15,                             !- Name
  Wall,                                   !- Surface Type
  ,                                       !- Construction Name
  {6299f83b-7c63-4908-8e7f-ac749bca9360}, !- Space Name
  Outdoors,                               !- Outside Boundary Condition
  ,                                       !- Outside Boundary Condition Object
  SunExposed,                             !- Sun Exposure
  WindExposed,                            !- Wind Exposure
  ,                                       !- View Factor to Ground
  ,                                       !- Number of Vertices
  4.57200000000002, 4.57199999999996, 3.048, !- X,Y,Z Vertex 1 {m}
  4.57200000000002, 4.57199999999996, 0,  !- X,Y,Z Vertex 2 {m}
  1.77635683940025e-014, 4.57199999999996, 0, !- X,Y,Z Vertex 3 {m}
  1.77635683940025e-014, 4.57199999999996, 3.048; !- X,Y,Z Vertex 4 {m}

OS:Surface,
  {4a953e3c-216e-45d8-8f76-0c49619bb551}, !- Handle
  Surface 16,                             !- Name