
OS:Version,
  {2dcdfc17-70f7-44ee-8aca-39338788c082}, !- Handle
  2.7.2;                                  !- Version Identifier

OS:SpaceType,
  {5d06d981-17e7-4bc4-9e56-57945b13a0af}, !- Handle
  Office WholeBuilding - Sm Office,       !- Name
  ,                                       !- Default Construction Set Name
  ,                                       !- Default Schedule Set Name
  {723aaea9-c4a1-4e36-b75f-72ec85f09da9}, !- Group Rendering Name
  ,                                       !- Design Specification Outdoor Air Object Name
  ,                                       !- Standards Template
  Office,                                 !- Standards Building Type
  WholeBuilding - Sm Office;              !- Standards Space Type

OS:Rendering:Color,
  {723aaea9-c4a1-4e36-b75f-72ec85f09da9}, !- Handle
  Office WholeBuilding - Sm Office,       !- Name
  120,                                    !- Rendering Red Value
  230,                                    !- Rendering Green Value
  199;                                    !- Rendering Blue Value

OS:Building,
  {a7865cd5-7d18-40d3-9eae-ba4cf32318d7}, !- Handle
  90.1-2004|SmallOffice,                  !- Name
  ,                                       !- Building Sector Type
  ,                                       !- North Axis {deg}
  ,                                       !- Nominal Floor to Floor Height {m}
  ,                                       !- Space Type Name
  ,                                       !- Default Construction Set Name
  ;                                       !- Default Schedule Set Name

OS:Site,
  {3bee9427-418e-480a-9fc4-e6bc2d463292}, !- Handle
  Site 1,                                 !- Name
  ,                                       !- Latitude {deg}
  ,                                       !- Longitude {deg}
  ,                                       !- Time Zone {hr}
  ,                                       !- Elevation {m}
  ;                                       !- Terrain

OS:BuildingStory,
  {6d608ee3-2b3c-4f26-b67d-f015d463dbe5}, !- Handle
  Story Ground,                           !- Name
  0,                                      !- Nominal Z Coordinate {m}
  3.048,                                  !- Nominal Floor to Floor Height {m}
  ,                                       !- Default Construction Set Name
  ,                                       !- Default Schedule Set Name
  ;                                       !- Group Rendering Name

OS:Space,
  {42e052ef-3eec-405f-a526-322689371c22}, !- Handle
  Office WholeBuilding - Sm Office A end_a - Story Ground, !- Name
  {5d06d981-17e7-4bc4-9e56-57945b13a0af}, !- Space Type Name
  ,                                       !- Default Construction Set Name
  ,                                       !- Default Schedule Set Name
  -0,                                     !- Direction of Relative North {deg}
  -18.6651118400078,                      !- X Origin {m}
  -12.4434078933385,                      !- Y Origin {m}
  0,                                      !- Z Origin {m}
  {6d608ee3-2b3c-4f26-b67d-f015d463dbe5}, !- Building Story Name
  {db9bf0d2-8693-450c-b064-2aba0915d36c}; !- Thermal Zone Name

OS:Surface,
  {5e5cf2e9-f0a8-477b-adac-7d16bdf73fb5}, !- Handle
  Surface 1,                              !- Name
  Floor,                                  !- Surface Type
  ,                                       !- Construction Name
  {42e052ef-3eec-405f-a526-322689371c22}, !- Space Name
  Ground,                                 !- Outside Boundary Condition
  ,                                       !- Outside Boundary Condition Object
  NoSun,                                  !- Sun Exposure
  NoWind,                                 !- Wind Exposure
  ,                                       !- View Factor to Ground
  ,                                       !- Number of Vertices
  1.77635683940025e-014, 4.44089209850063e-014, 0, !- X,Y,Z Vertex 1 {m}
  1.77635683940025e-014, 4.57199999999999, 0, !- X,Y,Z Vertex 2 {m}
  4.57200000000002, 4.57199999999999, 0,  !- X,Y,Z Vertex 3 {m}
  4.57200000000002, 4.44089209850063e-014, 0; !- X,Y,Z Vertex 4 {m}

OS:Surface,
  {4274bfd4-b01a-42d9-adcd-357524b62f88}, !- Handle
  Surface 2,                              !- Name
  Wall,                                   !- Surface Type
  ,                                       !- Construction Name
  {42e052ef-3eec-405f-a526-322689371c22}, !- Space Name
  Outdoors,                               !- Outside Boundary Condition
  ,                                       !- Outside Boundary Condition Object
  SunExposed,                             !- Sun Exposure
  WindExposed,                            !- Wind Exposure
  ,                                       !- View Factor to Ground
  ,                                       !- Number of Vertices
  1.77635683940025e-014, 4.57199999999999, 3.048, !- X,Y,Z Vertex 1 {m}
  1.77635683940025e-014, 4.57199999999999, 0, !- X,Y,Z Vertex 2 {m}
  1.77635683940025e-014, 4.44089209850063e-014, 0, !- X,Y,Z Vertex 3 {m}
  1.77635683940025e-014, 4.44089209850063e-014, 3.048; !- X,Y,Z Vertex 4 {m}

OS:Surface,
  {557cef57-a6f2-4c5d-a096-edaa34b22581}, !- Handle
  Surface 3,                              !- Name
  Wall,                                   !- Surface Type
  ,                                       !- Construction Name
  {42e052ef-3eec-405f-a526-322689371c22}, !- Space Name
  Surface,                                !- Outside Boundary Condition
  {a60e02d0-ef61-48e5-bad7-a14c91a75c1b}, !- Outside Boundary Condition Object
  NoSun,                                  !- Sun Exposure
  NoWind,                                 !- Wind Exposure
  ,                                       !- View Factor to Ground
  ,                                       !- Number of Vertices
  4.57200000000002, 4.57199999999999, 3.048, !- X,Y,Z Vertex 1 {m}
  4.57200000000002, 4.57199999999999, 0,  !- X,Y,Z Vertex 2 {m}
  1.77635683940025e-014, 4.57199999999999, 0, !- X,Y,Z Vertex 3 {m}
  1.77635683940025e-014, 4.57199999999999, 3.048; !- X,Y,Z Vertex 4 {m}

OS:Surface,
  {b4085090-df16-403e-b934-f4ee488f01c6}, !- Handle
  Surface 4,                              !- Name
  Wall,                                   !- Surface Type
  ,                                       !- Construction Name
  {42e052ef-3eec-405f-a526-322689371c22}, !- Space Name
  Surface,                                !- Outside Boundary Condition
  {c124b357-0a07-48c6-ba15-945fdf31ba61}, !- Outside Boundary Condition Object
  NoSun,                                  !- Sun Exposure
  NoWind,                                 !- Wind Exposure
  ,                                       !- View Factor to Ground
  ,                                       !- Number of Vertices
  4.57200000000002, 4.44089209850063e-014, 3.048, !- X,Y,Z Vertex 1 {m}
  4.57200000000002, 4.44089209850063e-014, 0, !- X,Y,Z Vertex 2 {m}
  4.57200000000002, 4.57199999999999, 0,  !- X,Y,Z Vertex 3 {m}
  4.57200000000002, 4.57199999999999, 3.048; !- X,Y,Z Vertex 4 {m}

OS:Surface,
  {7209f26a-e60e-4dd2-b2fc-0ece1fc6e38e}, !- Handle
  Surface 5,                              !- Name
  Wall,                                   !- Surface Type
  ,                                       !- Construction Name
  {42e052ef-3eec-405f-a526-322689371c22}, !- Space Name
  Outdoors,                               !- Outside Boundary Condition
  ,                                       !- Outside Boundary Condition Object
  SunExposed,                             !- Sun Exposure
  WindExposed,                            !- Wind Exposure
  ,                                       !- View Factor to Ground
  ,                                       !- Number of Vertices
  1.77635683940025e-014, 4.44089209850063e-014, 3.048, !- X,Y,Z Vertex 1 {m}
  1.77635683940025e-014, 4.44089209850063e-014, 0, !- X,Y,Z Vertex 2 {m}
  4.57200000000002, 4.44089209850063e-014, 0, !- X,Y,Z Vertex 3 {m}
  4.57200000000002, 4.44089209850063e-014, 3.048; !- X,Y,Z Vertex 4 {m}

OS:Surface,
  {d1e96a62-f234-4aa8-9e67-0207ee9639e2}, !- Handle
  Surface 6,                              !- Name
  RoofCeiling,                            !- Surface Type
  ,                                       !- Construction Name
  {42e052ef-3eec-405f-a526-322689371c22}, !- Space Name
  Outdoors,                               !- Outside Boundary Condition
  ,                                       !- Outside Boundary Condition Object
  SunExposed,                             !- Sun Exposure
  WindExposed,                            !- Wind Exposure
  ,                                       !- View Factor to Ground
  ,                                       !- Number of Vertices
  4.57200000000002, 4.44089209850063e-014, 3.048, !- X,Y,Z Vertex 1 {m}
  4.57200000000002, 4.57199999999999, 3.048, !- X,Y,Z Vertex 2 {m}
  1.77635683940025e-014, 4.57199999999999, 3.048, !- X,Y,Z Vertex 3 {m}
  1.77635683940025e-014, 4.44089209850063e-014, 3.048; !- X,Y,Z Vertex 4 {m}

OS:ThermalZone,
  {db9bf0d2-8693-450c-b064-2aba0915d36c}, !- Handle
  Zone Office WholeBuilding - Sm Office A end_a - Story Ground, !- Name
  1,                                      !- Multiplier
  ,                                       !- Ceiling Height {m}
  ,                                       !- Volume {m3}
  ,                                       !- Floor Area {m2}
  ,                                       !- Zone Inside Convection Algorithm
  ,                                       !- Zone Outside Convection Algorithm
  ,                                       !- Zone Conditioning Equipment List Name
  {cd7b7d53-5c19-49dd-8f7a-822184a1c2d1}, !- Zone Air Inlet Port List
  {b48eaab2-7c52-4250-a04d-c197bdb1367e}, !- Zone Air Exhaust Port List
  {91b41383-2808-4fb7-836a-5d10462a0d36}, !- Zone Air Node Name
  {dd175b06-76e3-4d15-9f43-c59303c42b14}, !- Zone Return Air Port List
  ,                                       !- Primary Daylighting Control Name
  ,                                       !- Fraction of Zone Controlled by Primary Daylighting Control
  ,                                       !- Secondary Daylighting Control Name
  ,                                       !- Fraction of Zone Controlled by Secondary Daylighting Control
  ,                                       !- Illuminance Map Name
  ,                                       !- Group Rendering Name
  ,                                       !- Thermostat Name
  No;                                     !- Use Ideal Air Loads

OS:Node,
  {6657e14e-74ca-4f0a-bbe9-9d40024935d2}, !- Handle
  Node 1,                                 !- Name
  {91b41383-2808-4fb7-836a-5d10462a0d36}, !- Inlet Port
  ;                                       !- Outlet Port

OS:Connection,
  {91b41383-2808-4fb7-836a-5d10462a0d36}, !- Handle
  {5328cae3-ea2c-49aa-b7e5-f57d8d330330}, !- Name
  {db9bf0d2-8693-450c-b064-2aba0915d36c}, !- Source Object
  11,                                     !- Outlet Port
  {6657e14e-74ca-4f0a-bbe9-9d40024935d2}, !- Target Object
  2;                                      !- Inlet Port

OS:PortList,
  {cd7b7d53-5c19-49dd-8f7a-822184a1c2d1}, !- Handle
  {cbde2a27-0b0d-4b74-b4ee-b4ee4c3a8998}, !- Name
  {db9bf0d2-8693-450c-b064-2aba0915d36c}; !- HVAC Component

OS:PortList,
  {b48eaab2-7c52-4250-a04d-c197bdb1367e}, !- Handle
  {87e2564c-0998-46e0-9051-9c3b5af5c599}, !- Name
  {db9bf0d2-8693-450c-b064-2aba0915d36c}; !- HVAC Component

OS:PortList,
  {dd175b06-76e3-4d15-9f43-c59303c42b14}, !- Handle
  {15fd96bc-c233-4533-b224-45f4421a3161}, !- Name
  {db9bf0d2-8693-450c-b064-2aba0915d36c}; !- HVAC Component

OS:Sizing:Zone,
  {56fadf8f-87d6-4c05-bb13-76f3d8ba9152}, !- Handle
  {db9bf0d2-8693-450c-b064-2aba0915d36c}, !- Zone or ZoneList Name
  SupplyAirTemperature,                   !- Zone Cooling Design Supply Air Temperature Input Method
  14,                                     !- Zone Cooling Design Supply Air Temperature {C}
  11.11,                                  !- Zone Cooling Design Supply Air Temperature Difference {deltaC}
  SupplyAirTemperature,                   !- Zone Heating Design Supply Air Temperature Input Method
  40,                                     !- Zone Heating Design Supply Air Temperature {C}
  11.11,                                  !- Zone Heating Design Supply Air Temperature Difference {deltaC}
  0.0085,                                 !- Zone Cooling Design Supply Air Humidity Ratio {kg-H2O/kg-air}
  0.008,                                  !- Zone Heating Design Supply Air Humidity Ratio {kg-H2O/kg-air}
  ,                                       !- Zone Heating Sizing Factor
  ,                                       !- Zone Cooling Sizing Factor
  DesignDay,                              !- Cooling Design Air Flow Method
  ,                                       !- Cooling Design Air Flow Rate {m3/s}
  ,                                       !- Cooling Minimum Air Flow per Zone Floor Area {m3/s-m2}
  ,                                       !- Cooling Minimum Air Flow {m3/s}
  ,                                       !- Cooling Minimum Air Flow Fraction
  DesignDay,                              !- Heating Design Air Flow Method
  ,                                       !- Heating Design Air Flow Rate {m3/s}
  ,                                       !- Heating Maximum Air Flow per Zone Floor Area {m3/s-m2}
  ,                                       !- Heating Maximum Air Flow {m3/s}
  ,                                       !- Heating Maximum Air Flow Fraction
  ,                                       !- Design Zone Air Distribution Effectiveness in Cooling Mode
  ,                                       !- Design Zone Air Distribution Effectiveness in Heating Mode
  No,                                     !- Account for Dedicated Outdoor Air System
  NeutralSupplyAir,                       !- Dedicated Outdoor Air System Control Strategy
  autosize,                               !- Dedicated Outdoor Air Low Setpoint Temperature for Design {C}
  autosize;                               !- Dedicated Outdoor Air High Setpoint Temperature for Design {C}

OS:ZoneHVAC:EquipmentList,
  {2a51ffcf-122b-4e0e-b815-9626dac86943}, !- Handle
  Zone HVAC Equipment List 1,             !- Name
  {db9bf0d2-8693-450c-b064-2aba0915d36c}; !- Thermal Zone

OS:Space,
  {5c74144c-b025-46fa-aa75-b1616421f800}, !- Handle
  Office WholeBuilding - Sm Office B end_a - Story Ground, !- Name
  {5d06d981-17e7-4bc4-9e56-57945b13a0af}, !- Space Type Name
  ,                                       !- Default Construction Set Name
  ,                                       !- Default Schedule Set Name
  -0,                                     !- Direction of Relative North {deg}
  -18.6651118400078,                      !- X Origin {m}
  -7.87140789333855,                      !- Y Origin {m}
  0,                                      !- Z Origin {m}
  {6d608ee3-2b3c-4f26-b67d-f015d463dbe5}, !- Building Story Name
  {8e9ae37b-cc2e-413e-bc20-c7d2450bb0fb}; !- Thermal Zone Name

OS:Surface,
  {d830b65a-ade2-435a-900c-2d2acc89f7c1}, !- Handle
  Surface 7,                              !- Name
  Floor,                                  !- Surface Type
  ,                                       !- Construction Name
  {5c74144c-b025-46fa-aa75-b1616421f800}, !- Space Name
  Ground,                                 !- Outside Boundary Condition
  ,                                       !- Outside Boundary Condition Object
  NoSun,                                  !- Sun Exposure
  NoWind,                                 !- Wind Exposure
  ,                                       !- View Factor to Ground
  ,                                       !- Number of Vertices
  1.77635683940025e-014, -5.32907051820075e-015, 0, !- X,Y,Z Vertex 1 {m}
  1.77635683940025e-014, 15.7428157866771, 0, !- X,Y,Z Vertex 2 {m}
  4.57200000000002, 15.7428157866771, 0,  !- X,Y,Z Vertex 3 {m}
  4.57200000000002, -5.32907051820075e-015, 0; !- X,Y,Z Vertex 4 {m}

OS:Surface,
  {b661d3d6-b083-41c3-a6ce-38d4f48172e2}, !- Handle
  Surface 8,                              !- Name
  Wall,                                   !- Surface Type
  ,                                       !- Construction Name
  {5c74144c-b025-46fa-aa75-b1616421f800}, !- Space Name
  Outdoors,                               !- Outside Boundary Condition
  ,                                       !- Outside Boundary Condition Object
  SunExposed,                             !- Sun Exposure
  WindExposed,                            !- Wind Exposure
  ,                                       !- View Factor to Ground
  ,                                       !- Number of Vertices
  1.77635683940025e-014, 15.7428157866771, 3.048, !- X,Y,Z Vertex 1 {m}
  1.77635683940025e-014, 15.7428157866771, 0, !- X,Y,Z Vertex 2 {m}
  1.77635683940025e-014, -5.32907051820075e-015, 0, !- X,Y,Z Vertex 3 {m}
  1.77635683940025e-014, -5.32907051820075e-015, 3.048; !- X,Y,Z Vertex 4 {m}

OS:Surface,
  {a26f7df2-0f62-4e31-8e2c-7c2d62df1895}, !- Handle
  Surface 9,                              !- Name
  Wall,                                   !- Surface Type
  ,                                       !- Construction Name
  {5c74144c-b025-46fa-aa75-b1616421f800}, !- Space Name
  Surface,                                !- Outside Boundary Condition
  {2029a334-9339-49b8-b7d1-41aac461290c}, !- Outside Boundary Condition Object
  NoSun,                                  !- Sun Exposure
  NoWind,                                 !- Wind Exposure
  ,                                       !- View Factor to Ground
  ,                                       !- Number of Vertices
  4.57200000000002, 15.7428157866771, 3.048, !- X,Y,Z Vertex 1 {m}
  4.57200000000002, 15.7428157866771, 0,  !- X,Y,Z Vertex 2 {m}
  1.77635683940025e-014, 15.7428157866771, 0, !- X,Y,Z Vertex 3 {m}
  1.77635683940025e-014, 15.7428157866771, 3.048; !- X,Y,Z Vertex 4 {m}

OS:Surface,
  {63ec7c0d-6a1c-4bb0-bc0b-78fa6c56eaec}, !- Handle
  Surface 10,                             !- Name
  Wall,                                   !- Surface Type
  ,                                       !- Construction Name
  {5c74144c-b025-46fa-aa75-b1616421f800}, !- Space Name
  Surface,                                !- Outside Boundary Condition
  {d1d1731d-8de9-4832-949e-87870185190e}, !- Outside Boundary Condition Object
  NoSun,                                  !- Sun Exposure
  NoWind,                                 !- Wind Exposure
  ,                                       !- View Factor to Ground
  ,                                       !- Number of Vertices
  4.57200000000002, -5.32907051820075e-015, 3.048, !- X,Y,Z Vertex 1 {m}
  4.57200000000002, -5.32907051820075e-015, 0, !- X,Y,Z Vertex 2 {m}
  4.57200000000002, 15.7428157866771, 0,  !- X,Y,Z Vertex 3 {m}
  4.57200000000002, 15.7428157866771, 3.048; !- X,Y,Z Vertex 4 {m}

OS:Surface,
  {a60e02d0-ef61-48e5-bad7-a14c91a75c1b}, !- Handle
  Surface 11,                             !- Name
  Wall,                                   !- Surface Type
  ,                                       !- Construction Name
  {5c74144c-b025-46fa-aa75-b1616421f800}, !- Space Name
  Surface,                                !- Outside Boundary Condition
  {557cef57-a6f2-4c5d-a096-edaa34b22581}, !- Outside Boundary Condition Object
  NoSun,                                  !- Sun Exposure
  NoWind,                                 !- Wind Exposure
  ,                                       !- View Factor to Ground
  ,                                       !- Number of Vertices
  1.77635683940025e-014, -5.32907051820075e-015, 3.048, !- X,Y,Z Vertex 1 {m}
  1.77635683940025e-014, -5.32907051820075e-015, 0, !- X,Y,Z Vertex 2 {m}
  4.57200000000002, -5.32907051820075e-015, 0, !- X,Y,Z Vertex 3 {m}
  4.57200000000002, -5.32907051820075e-015, 3.048; !- X,Y,Z Vertex 4 {m}

OS:Surface,
  {5459b831-55bd-4d0a-8216-50b556fa0540}, !- Handle
  Surface 12,                             !- Name
  RoofCeiling,                            !- Surface Type
  ,                                       !- Construction Name
  {5c74144c-b025-46fa-aa75-b1616421f800}, !- Space Name
  Outdoors,                               !- Outside Boundary Condition
  ,                                       !- Outside Boundary Condition Object
  SunExposed,                             !- Sun Exposure
  WindExposed,                            !- Wind Exposure
  ,                                       !- View Factor to Ground
  ,                                       !- Number of Vertices
  4.57200000000002, -5.32907051820075e-015, 3.048, !- X,Y,Z Vertex 1 {m}
  4.57200000000002, 15.7428157866771, 3.048, !- X,Y,Z Vertex 2 {m}
  1.77635683940025e-014, 15.7428157866771, 3.048, !- X,Y,Z Vertex 3 {m}
  1.77635683940025e-014, -5.32907051820075e-015, 3.048; !- X,Y,Z Vertex 4 {m}

OS:ThermalZone,
  {8e9ae37b-cc2e-413e-bc20-c7d2450bb0fb}, !- Handle
  Zone Office WholeBuilding - Sm Office B end_a - Story Ground, !- Name
  1,                                      !- Multiplier
  ,                                       !- Ceiling Height {m}
  ,                                       !- Volume {m3}
  ,                                       !- Floor Area {m2}
  ,                                       !- Zone Inside Convection Algorithm
  ,                                       !- Zone Outside Convection Algorithm
  ,                                       !- Zone Conditioning Equipment List Name
  {cca986cb-df92-4028-ac0c-3f0d76fc585c}, !- Zone Air Inlet Port List
  {24b72180-255c-41f3-9d4e-78760f96774d}, !- Zone Air Exhaust Port List
  {2e4ee599-3480-477d-aa5d-9f6a4a528b82}, !- Zone Air Node Name
  {30e3ccea-172e-4794-bd81-bbb8c889d96a}, !- Zone Return Air Port List
  ,                                       !- Primary Daylighting Control Name
  ,                                       !- Fraction of Zone Controlled by Primary Daylighting Control
  ,                                       !- Secondary Daylighting Control Name
  ,                                       !- Fraction of Zone Controlled by Secondary Daylighting Control
  ,                                       !- Illuminance Map Name
  ,                                       !- Group Rendering Name
  ,                                       !- Thermostat Name
  No;                                     !- Use Ideal Air Loads

OS:Node,
  {ae4b8e3e-b796-4aad-96a6-a5e83bb72427}, !- Handle
  Node 2,                                 !- Name
  {2e4ee599-3480-477d-aa5d-9f6a4a528b82}, !- Inlet Port
  ;                                       !- Outlet Port

OS:Connection,
  {2e4ee599-3480-477d-aa5d-9f6a4a528b82}, !- Handle
  {8a058551-4817-461a-937a-6a9b01800c9b}, !- Name
  {8e9ae37b-cc2e-413e-bc20-c7d2450bb0fb}, !- Source Object
  11,                                     !- Outlet Port
  {ae4b8e3e-b796-4aad-96a6-a5e83bb72427}, !- Target Object
  2;                                      !- Inlet Port

OS:PortList,
  {cca986cb-df92-4028-ac0c-3f0d76fc585c}, !- Handle
  {04c54740-c2a5-40b2-9942-7c29ee22f148}, !- Name
  {8e9ae37b-cc2e-413e-bc20-c7d2450bb0fb}; !- HVAC Component

OS:PortList,
  {24b72180-255c-41f3-9d4e-78760f96774d}, !- Handle
  {19281772-91a8-49fa-a81a-8dba277718ec}, !- Name
  {8e9ae37b-cc2e-413e-bc20-c7d2450bb0fb}; !- HVAC Component

OS:PortList,
  {30e3ccea-172e-4794-bd81-bbb8c889d96a}, !- Handle
  {50478430-1767-49c5-8532-c6999a588a0a}, !- Name
  {8e9ae37b-cc2e-413e-bc20-c7d2450bb0fb}; !- HVAC Component

OS:Sizing:Zone,
  {9a67bc93-9455-479c-b21f-8d808c651261}, !- Handle
  {8e9ae37b-cc2e-413e-bc20-c7d2450bb0fb}, !- Zone or ZoneList Name
  SupplyAirTemperature,                   !- Zone Cooling Design Supply Air Temperature Input Method
  14,                                     !- Zone Cooling Design Supply Air Temperature {C}
  11.11,                                  !- Zone Cooling Design Supply Air Temperature Difference {deltaC}
  SupplyAirTemperature,                   !- Zone Heating Design Supply Air Temperature Input Method
  40,                                     !- Zone Heating Design Supply Air Temperature {C}
  11.11,                                  !- Zone Heating Design Supply Air Temperature Difference {deltaC}
  0.0085,                                 !- Zone Cooling Design Supply Air Humidity Ratio {kg-H2O/kg-air}
  0.008,                                  !- Zone Heating Design Supply Air Humidity Ratio {kg-H2O/kg-air}
  ,                                       !- Zone Heating Sizing Factor
  ,                                       !- Zone Cooling Sizing Factor
  DesignDay,                              !- Cooling Design Air Flow Method
  ,                                       !- Cooling Design Air Flow Rate {m3/s}
  ,                                       !- Cooling Minimum Air Flow per Zone Floor Area {m3/s-m2}
  ,                                       !- Cooling Minimum Air Flow {m3/s}
  ,                                       !- Cooling Minimum Air Flow Fraction
  DesignDay,                              !- Heating Design Air Flow Method
  ,                                       !- Heating Design Air Flow Rate {m3/s}
  ,                                       !- Heating Maximum Air Flow per Zone Floor Area {m3/s-m2}
  ,                                       !- Heating Maximum Air Flow {m3/s}
  ,                                       !- Heating Maximum Air Flow Fraction
  ,                                       !- Design Zone Air Distribution Effectiveness in Cooling Mode
  ,                                       !- Design Zone Air Distribution Effectiveness in Heating Mode
  No,                                     !- Account for Dedicated Outdoor Air System
  NeutralSupplyAir,                       !- Dedicated Outdoor Air System Control Strategy
  autosize,                               !- Dedicated Outdoor Air Low Setpoint Temperature for Design {C}
  autosize;                               !- Dedicated Outdoor Air High Setpoint Temperature for Design {C}

OS:ZoneHVAC:EquipmentList,
  {521f9aef-6dfe-41b0-b164-89b13cbe44e4}, !- Handle
  Zone HVAC Equipment List 2,             !- Name
  {8e9ae37b-cc2e-413e-bc20-c7d2450bb0fb}; !- Thermal Zone

OS:Space,
  {8e125ca0-82b7-4bcf-9bac-09b50d93e1b7}, !- Handle
  Office WholeBuilding - Sm Office C end_a - Story Ground, !- Name
  {5d06d981-17e7-4bc4-9e56-57945b13a0af}, !- Space Type Name
  ,                                       !- Default Construction Set Name
  ,                                       !- Default Schedule Set Name
  -0,                                     !- Direction of Relative North {deg}
  -18.6651118400078,                      !- X Origin {m}
  7.87140789333855,                       !- Y Origin {m}
  0,                                      !- Z Origin {m}
  {6d608ee3-2b3c-4f26-b67d-f015d463dbe5}, !- Building Story Name
  {2a083cc4-a1cc-4304-ae10-0998e865e2b1}; !- Thermal Zone Name

OS:Surface,
  {9bf6c222-157b-47d3-a614-d3731377b9ae}, !- Handle
  Surface 13,                             !- Name
  Floor,                                  !- Surface Type
  ,                                       !- Construction Name
  {8e125ca0-82b7-4bcf-9bac-09b50d93e1b7}, !- Space Name
  Ground,                                 !- Outside Boundary Condition
  ,                                       !- Outside Boundary Condition Object
  NoSun,                                  !- Sun Exposure
  NoWind,                                 !- Wind Exposure
  ,                                       !- View Factor to Ground
  ,                                       !- Number of Vertices
  1.77635683940025e-014, 5.32907051820075e-015, 0, !- X,Y,Z Vertex 1 {m}
  1.77635683940025e-014, 4.57199999999996, 0, !- X,Y,Z Vertex 2 {m}
  4.57200000000002, 4.57199999999996, 0,  !- X,Y,Z Vertex 3 {m}
  4.57200000000002, 5.32907051820075e-015, 0; !- X,Y,Z Vertex 4 {m}

OS:Surface,
  {794fbcf8-990c-4092-9586-3b2a1b29083c}, !- Handle
  Surface 14,                             !- Name
  Wall,                                   !- Surface Type
  ,                                       !- Construction Name
  {8e125ca0-82b7-4bcf-9bac-09b50d93e1b7}, !- Space Name
  Outdoors,                               !- Outside Boundary Condition
  ,                                       !- Outside Boundary Condition Object
  SunExposed,                             !- Sun Exposure
  WindExposed,                            !- Wind Exposure
  ,                                       !- View Factor to Ground
  ,                                       !- Number of Vertices
  1.77635683940025e-014, 4.57199999999996, 3.048, !- X,Y,Z Vertex 1 {m}
  1.77635683940025e-014, 4.57199999999996, 0, !- X,Y,Z Vertex 2 {m}
  1.77635683940025e-014, 5.32907051820075e-015, 0, !- X,Y,Z Vertex 3 {m}
  1.77635683940025e-014, 5.32907051820075e-015, 3.048; !- X,Y,Z Vertex 4 {m}

OS:Surface,
  {b6b8205d-a301-4b7c-be39-7730cf74263a}, !- Handle
  Surface 15,                             !- Name
  Wall,                                   !- Surface Type
  ,                                       !- Construction Name
  {8e125ca0-82b7-4bcf-9bac-09b50d93e1b7}, !- Space Name
  Outdoors,                               !- Outside Boundary Condition
  ,                                       !- Outside Boundary Condition Object
  SunExposed,                             !- Sun Exposure
  WindExposed,                            !- Wind Exposure
  ,                                       !- View Factor to Ground
  ,                                       !- Number of Vertices
  4.57200000000002, 4.57199999999996, 3.048, !- X,Y,Z Vertex 1 {m}
  4.57200000000002, 4.57199999999996, 0,  !- X,Y,Z Vertex 2 {m}
  1.77635683940025e-014, 4.57199999999996, 0, !- X,Y,Z Vertex 3 {m}
  1.77635683940025e-014, 4.57199999999996, 3.048; !- X,Y,Z Vertex 4 {m}

OS:Surface,
  {be1ce25f-e393-46bf-9794-fbcb04a3d8aa}, !- Handle
  Surface 16,                             !- Name