
OS:Version,
  {a408692a-1000-41a8-850d-929fa8a7a858}, !- Handle
  2.7.2;                                  !- Version Identifier

OS:SpaceType,
  {469af8a7-3772-4cdd-873a-3a79429562b6}, !- Handle
  Office WholeBuilding - Sm Office,       !- Name
  ,                                       !- Default Construction Set Name
  ,                                       !- Default Schedule Set Name
  {52819fdd-8987-4a4b-82ca-1f6288adbe46}, !- Group Rendering Name
  ,                                       !- Design Specification Outdoor Air Object Name
  ,                                       !- Standards Template
  Office,                                 !- Standards Building Type
  WholeBuilding - Sm Office;              !- Standards Space Type

OS:Rendering:Color,
  {52819fdd-8987-4a4b-82ca-1f6288adbe46}, !- Handle
  Office WholeBuilding - Sm Office,       !- Name
  120,                                    !- Rendering Red Value
  230,                                    !- Rendering Green Value
  199;                                    !- Rendering Blue Value

OS:Building,
  {11bc7922-639b-4a92-ac9b-44c498bbbe4f}, !- Handle
  90.1-2004|SmallOffice,                  !- Name
  ,                                       !- Building Sector Type
  ,                                       !- North Axis {deg}
  ,                                       !- Nominal Floor to Floor Height {m}
  ,                                       !- Space Type Name
  ,                                       !- Default Construction Set Name
  ;                                       !- Default Schedule Set Name

OS:Site,
  {f7ab6f8f-34b6-4f11-844b-09cf7f043077}, !- Handle
  Site 1,                                 !- Name
  ,                                       !- Latitude {deg}
  ,                                       !- Longitude {deg}
  ,                                       !- Time Zone {hr}
  ,                                       !- Elevation {m}
  ;                                       !- Terrain

OS:BuildingStory,
  {f28aae5d-e20f-4471-b20a-6c174c3071e5}, !- Handle
  Story Ground,                           !- Name
  0,                                      !- Nominal Z Coordinate {m}
  3.048,                                  !- Nominal Floor to Floor Height {m}
  ,                                       !- Default Construction Set Name
  ,                                       !- Default Schedule Set Name
  ;                                       !- Group Rendering Name

OS:Space,
  {fe5a50ee-0ee5-459b-ba77-6e16b2b79d3d}, !- Handle
  Office WholeBuilding - Sm Office A end_a - Story Ground, !- Name
  {469af8a7-3772-4cdd-873a-3a79429562b6}, !- Space Type Name
  ,                                       !- Default Construction Set Name
  ,                                       !- Default Schedule Set Name
  -0,                                     !- Direction of Relative North {deg}
  -18.6651118400078,                      !- X Origin {m}
  -12.4434078933385,                      !- Y Origin {m}
  0,                                      !- Z Origin {m}
  {f28aae5d-e20f-4471-b20a-6c174c3071e5}, !- Building Story Name
  {d072ce80-c6b1-4d49-8349-5e97b8c7d926}; !- Thermal Zone Name

OS:Surface,
  {252dc344-fc7a-4b43-9fe9-e3fc54f13b75}, !- Handle
  Surface 1,                              !- Name
  Floor,                                  !- Surface Type
  ,                                       !- Construction Name
  {fe5a50ee-0ee5-459b-ba77-6e16b2b79d3d}, !- Space Name
  Ground,                                 !- Outside Boundary Condition
  ,                                       !- Outside Boundary Condition Object
  NoSun,                                  !- Sun Exposure
  NoWind,                                 !- Wind Exposure
  ,                                       !- View Factor to Ground
  ,                                       !- Number of Vertices
  1.77635683940025e-014, 4.44089209850063e-014, 0, !- X,Y,Z Vertex 1 {m}
  1.77635683940025e-014, 4.57199999999999, 0, !- X,Y,Z Vertex 2 {m}
  4.57200000000002, 4.57199999999999, 0,  !- X,Y,Z Vertex 3 {m}
  4.57200000000002, 4.44089209850063e-014, 0; !- X,Y,Z Vertex 4 {m}

OS:Surface,
  {96c89ee6-d102-4fd2-8bbb-95ca1693a46b}, !- Handle
  Surface 2,                              !- Name
  Wall,                                   !- Surface Type
  ,                                       !- Construction Name
  {fe5a50ee-0ee5-459b-ba77-6e16b2b79d3d}, !- Space Name
  Outdoors,                               !- Outside Boundary Condition
  ,                                       !- Outside Boundary Condition Object
  SunExposed,                             !- Sun Exposure
  WindExposed,                            !- Wind Exposure
  ,                                       !- View Factor to Ground
  ,                                       !- Number of Vertices
  1.77635683940025e-014, 4.57199999999999, 3.048, !- X,Y,Z Vertex 1 {m}
  1.77635683940025e-014, 4.57199999999999, 0, !- X,Y,Z Vertex 2 {m}
  1.77635683940025e-014, 4.44089209850063e-014, 0, !- X,Y,Z Vertex 3 {m}
  1.77635683940025e-014, 4.44089209850063e-014, 3.048; !- X,Y,Z Vertex 4 {m}

OS:Surface,
  {5b6c72ae-ba73-4f5e-b44c-ebee2827d5c2}, !- Handle
  Surface 3,                              !- Name
  Wall,                                   !- Surface Type
  ,                                       !- Construction Name
  {fe5a50ee-0ee5-459b-ba77-6e16b2b79d3d}, !- Space Name
  Surface,                                !- Outside Boundary Condition
  {ad471c0e-c0e0-42fc-a0a5-867f0eff45c2}, !- Outside Boundary Condition Object
  NoSun,                                  !- Sun Exposure
  NoWind,                                 !- Wind Exposure
  ,                                       !- View Factor to Ground
  ,                                       !- Number of Vertices
  4.57200000000002, 4.57199999999999, 3.048, !- X,Y,Z Vertex 1 {m}
  4.57200000000002, 4.57199999999999, 0,  !- X,Y,Z Vertex 2 {m}
  1.77635683940025e-014, 4.57199999999999, 0, !- X,Y,Z Vertex 3 {m}
  1.77635683940025e-014, 4.57199999999999, 3.048; !- X,Y,Z Vertex 4 {m}

OS:Surface,
  {15538bfc-5c5b-42b4-a372-4f47da0e5d58}, !- Handle
  Surface 4,                              !- Name
  Wall,                                   !- Surface Type
  ,                                       !- Construction Name
  {fe5a50ee-0ee5-459b-ba77-6e16b2b79d3d}, !- Space Name
  Surface,                                !- Outside Boundary Condition
  {d3b3868e-6303-480a-827e-10d7f500507f}, !- Outside Boundary Condition Object
  NoSun,                                  !- Sun Exposure
  NoWind,                                 !- Wind Exposure
  ,                                       !- View Factor to Ground
  ,                                       !- Number of Vertices
  4.57200000000002, 4.44089209850063e-014, 3.048, !- X,Y,Z Vertex 1 {m}
  4.57200000000002, 4.44089209850063e-014, 0, !- X,Y,Z Vertex 2 {m}
  4.57200000000002, 4.57199999999999, 0,  !- X,Y,Z Vertex 3 {m}
  4.57200000000002, 4.57199999999999, 3.048; !- X,Y,Z Vertex 4 {m}

OS:Surface,
  {0b53c1a6-d420-44e4-b6bf-8028ed6b1a9c}, !- Handle
  Surface 5,                              !- Name
  Wall,                                   !- Surface Type
  ,                                       !- Construction Name
  {fe5a50ee-0ee5-459b-ba77-6e16b2b79d3d}, !- Space Name
  Outdoors,                               !- Outside Boundary Condition
  ,                                       !- Outside Boundary Condition Object
  SunExposed,                             !- Sun Exposure
  WindExposed,                            !- Wind Exposure
  ,                                       !- View Factor to Ground
  ,                                       !- Number of Vertices
  1.77635683940025e-014, 4.44089209850063e-014, 3.048, !- X,Y,Z Vertex 1 {m}
  1.77635683940025e-014, 4.44089209850063e-014, 0, !- X,Y,Z Vertex 2 {m}
  4.57200000000002, 4.44089209850063e-014, 0, !- X,Y,Z Vertex 3 {m}
  4.57200000000002, 4.44089209850063e-014, 3.048; !- X,Y,Z Vertex 4 {m}

OS:Surface,
  {07039546-d574-4fc0-b9f6-d6c2b0b1ecfc}, !- Handle
  Surface 6,                              !- Name
  RoofCeiling,                            !- Surface Type
  ,                                       !- Construction Name
  {fe5a50ee-0ee5-459b-ba77-6e16b2b79d3d}, !- Space Name
  Outdoors,                               !- Outside Boundary Condition
  ,                                       !- Outside Boundary Condition Object
  SunExposed,                             !- Sun Exposure
  WindExposed,                            !- Wind Exposure
  ,                                       !- View Factor to Ground
  ,                                       !- Number of Vertices
  4.57200000000002, 4.44089209850063e-014, 3.048, !- X,Y,Z Vertex 1 {m}
  4.57200000000002, 4.57199999999999, 3.048, !- X,Y,Z Vertex 2 {m}
  1.77635683940025e-014, 4.57199999999999, 3.048, !- X,Y,Z Vertex 3 {m}
  1.77635683940025e-014, 4.44089209850063e-014, 3.048; !- X,Y,Z Vertex 4 {m}

OS:ThermalZone,
  {d072ce80-c6b1-4d49-8349-5e97b8c7d926}, !- Handle
  Zone Office WholeBuilding - Sm Office A end_a - Story Ground, !- Name
  1,                                      !- Multiplier
  ,                                       !- Ceiling Height {m}
  ,                                       !- Volume {m3}
  ,                                       !- Floor Area {m2}
  ,                                       !- Zone Inside Convection Algorithm
  ,                                       !- Zone Outside Convection Algorithm
  ,                                       !- Zone Conditioning Equipment List Name
  {4a81de76-f925-4295-863c-975d465b3572}, !- Zone Air Inlet Port List
  {28e0524f-9397-472f-a75e-0b5bf7459653}, !- Zone Air Exhaust Port List
  {e9b22972-3feb-4804-ae26-38716fc7bd97}, !- Zone Air Node Name
  {6ecd0cd7-8067-490b-84e9-f8b769ff8f6c}, !- Zone Return Air Port List
  ,                                       !- Primary Daylighting Control Name
  ,                                       !- Fraction of Zone Controlled by Primary Daylighting Control
  ,                                       !- Secondary Daylighting Control Name
  ,                                       !- Fraction of Zone Controlled by Secondary Daylighting Control
  ,                                       !- Illuminance Map Name
  ,                                       !- Group Rendering Name
  ,                                       !- Thermostat Name
  No;                                     !- Use Ideal Air Loads

OS:Node,
  {bdb09b37-979d-4fba-9f34-3b364addb314}, !- Handle
  Node 1,                                 !- Name
  {e9b22972-3feb-4804-ae26-38716fc7bd97}, !- Inlet Port
  ;                                       !- Outlet Port

OS:Connection,
  {e9b22972-3feb-4804-ae26-38716fc7bd97}, !- Handle
  {1cffbb73-f4cf-44b0-a597-b595b7b444ee}, !- Name
  {d072ce80-c6b1-4d49-8349-5e97b8c7d926}, !- Source Object
  11,                                     !- Outlet Port
  {bdb09b37-979d-4fba-9f34-3b364addb314}, !- Target Object
  2;                                      !- Inlet Port

OS:PortList,
  {4a81de76-f925-4295-863c-975d465b3572}, !- Handle
  {b5d4fb82-349c-4485-a991-fcac1fb90137}, !- Name
  {d072ce80-c6b1-4d49-8349-5e97b8c7d926}; !- HVAC Component

OS:PortList,
  {28e0524f-9397-472f-a75e-0b5bf7459653}, !- Handle
  {5396fce0-8c7f-4bb3-9ba3-a787dd00ba6b}, !- Name
  {d072ce80-c6b1-4d49-8349-5e97b8c7d926}; !- HVAC Component

OS:PortList,
  {6ecd0cd7-8067-490b-84e9-f8b769ff8f6c}, !- Handle
  {30e11912-c66b-48d8-959e-9962c61d0004}, !- Name
  {d072ce80-c6b1-4d49-8349-5e97b8c7d926}; !- HVAC Component

OS:Sizing:Zone,
  {7bcff71f-09fb-46be-b221-6bc26796f19d}, !- Handle
  {d072ce80-c6b1-4d49-8349-5e97b8c7d926}, !- Zone or ZoneList Name
  SupplyAirTemperature,                   !- Zone Cooling Design Supply Air Temperature Input Method
  14,                                     !- Zone Cooling Design Supply Air Temperature {C}
  11.11,                                  !- Zone Cooling Design Supply Air Temperature Difference {deltaC}
  SupplyAirTemperature,                   !- Zone Heating Design Supply Air Temperature Input Method
  40,                                     !- Zone Heating Design Supply Air Temperature {C}
  11.11,                                  !- Zone Heating Design Supply Air Temperature Difference {deltaC}
  0.0085,                                 !- Zone Cooling Design Supply Air Humidity Ratio {kg-H2O/kg-air}
  0.008,                                  !- Zone Heating Design Supply Air Humidity Ratio {kg-H2O/kg-air}
  ,                                       !- Zone Heating Sizing Factor
  ,                                       !- Zone Cooling Sizing Factor
  DesignDay,                              !- Cooling Design Air Flow Method
  ,                                       !- Cooling Design Air Flow Rate {m3/s}
  ,                                       !- Cooling Minimum Air Flow per Zone Floor Area {m3/s-m2}
  ,                                       !- Cooling Minimum Air Flow {m3/s}
  ,                                       !- Cooling Minimum Air Flow Fraction
  DesignDay,                              !- Heating Design Air Flow Method
  ,                                       !- Heating Design Air Flow Rate {m3/s}
  ,                                       !- Heating Maximum Air Flow per Zone Floor Area {m3/s-m2}
  ,                                       !- Heating Maximum Air Flow {m3/s}
  ,                                       !- Heating Maximum Air Flow Fraction
  ,                                       !- Design Zone Air Distribution Effectiveness in Cooling Mode
  ,                                       !- Design Zone Air Distribution Effectiveness in Heating Mode
  No,                                     !- Account for Dedicated Outdoor Air System
  NeutralSupplyAir,                       !- Dedicated Outdoor Air System Control Strategy
  autosize,                               !- Dedicated Outdoor Air Low Setpoint Temperature for Design {C}
  autosize;                               !- Dedicated Outdoor Air High Setpoint Temperature for Design {C}

OS:ZoneHVAC:EquipmentList,
  {2e067edb-2577-4796-89ed-18a7e7413da8}, !- Handle
  Zone HVAC Equipment List 1,             !- Name
  {d072ce80-c6b1-4d49-8349-5e97b8c7d926}; !- Thermal Zone

OS:Space,
  {cbf4d349-3e7a-49f4-9936-66f3e5c4d890}, !- Handle
  Office WholeBuilding - Sm Office B end_a - Story Ground, !- Name
  {469af8a7-3772-4cdd-873a-3a79429562b6}, !- Space Type Name
  ,                                       !- Default Construction Set Name
  ,                                       !- Default Schedule Set Name
  -0,                                     !- Direction of Relative North {deg}
  -18.6651118400078,                      !- X Origin {m}
  -7.87140789333855,                      !- Y Origin {m}
  0,                                      !- Z Origin {m}
  {f28aae5d-e20f-4471-b20a-6c174c3071e5}, !- Building Story Name
  {704c6613-6b58-4066-942c-cb74b9d94289}; !- Thermal Zone Name

OS:Surface,
  {146ff50b-6474-4c03-bcaf-e258db9a20de}, !- Handle
  Surface 7,                              !- Name
  Floor,                                  !- Surface Type
  ,                                       !- Construction Name
  {cbf4d349-3e7a-49f4-9936-66f3e5c4d890}, !- Space Name
  Ground,                                 !- Outside Boundary Condition
  ,                                       !- Outside Boundary Condition Object
  NoSun,                                  !- Sun Exposure
  NoWind,                                 !- Wind Exposure
  ,                                       !- View Factor to Ground
  ,                                       !- Number of Vertices
  1.77635683940025e-014, -5.32907051820075e-015, 0, !- X,Y,Z Vertex 1 {m}
  1.77635683940025e-014, 15.7428157866771, 0, !- X,Y,Z Vertex 2 {m}
  4.57200000000002, 15.7428157866771, 0,  !- X,Y,Z Vertex 3 {m}
  4.57200000000002, -5.32907051820075e-015, 0; !- X,Y,Z Vertex 4 {m}

OS:Surface,
  {8536159f-ee3a-4003-a02c-5daa9eec2ae5}, !- Handle
  Surface 8,                              !- Name
  Wall,                                   !- Surface Type
  ,                                       !- Construction Name
  {cbf4d349-3e7a-49f4-9936-66f3e5c4d890}, !- Space Name
  Outdoors,                               !- Outside Boundary Condition
  ,                                       !- Outside Boundary Condition Object
  SunExposed,                             !- Sun Exposure
  WindExposed,                            !- Wind Exposure
  ,                                       !- View Factor to Ground
  ,                                       !- Number of Vertices
  1.77635683940025e-014, 15.7428157866771, 3.048, !- X,Y,Z Vertex 1 {m}
  1.77635683940025e-014, 15.7428157866771, 0, !- X,Y,Z Vertex 2 {m}
  1.77635683940025e-014, -5.32907051820075e-015, 0, !- X,Y,Z Vertex 3 {m}
  1.77635683940025e-014, -5.32907051820075e-015, 3.048; !- X,Y,Z Vertex 4 {m}

OS:Surface,
  {20e23110-12a6-433a-bf1d-19759569bba4}, !- Handle
  Surface 9,                              !- Name
  Wall,                                   !- Surface Type
  ,                                       !- Construction Name
  {cbf4d349-3e7a-49f4-9936-66f3e5c4d890}, !- Space Name
  Surface,                                !- Outside Boundary Condition
  {e77abe59-36a3-4cd7-ba4f-b862d963c7e0}, !- Outside Boundary Condition Object
  NoSun,                                  !- Sun Exposure
  NoWind,                                 !- Wind Exposure
  ,                                       !- View Factor to Ground
  ,                                       !- Number of Vertices
  4.57200000000002, 15.7428157866771, 3.048, !- X,Y,Z Vertex 1 {m}
  4.57200000000002, 15.7428157866771, 0,  !- X,Y,Z Vertex 2 {m}
  1.77635683940025e-014, 15.7428157866771, 0, !- X,Y,Z Vertex 3 {m}
  1.77635683940025e-014, 15.7428157866771, 3.048; !- X,Y,Z Vertex 4 {m}

OS:Surface,
  {d3286e7e-b861-40d7-b371-ecee030e2437}, !- Handle
  Surface 10,                             !- Name
  Wall,                                   !- Surface Type
  ,                                       !- Construction Name
  {cbf4d349-3e7a-49f4-9936-66f3e5c4d890}, !- Space Name
  Surface,                                !- Outside Boundary Condition
  {80a3fe9a-9fb1-447f-aa67-76b01e976908}, !- Outside Boundary Condition Object
  NoSun,                                  !- Sun Exposure
  NoWind,                                 !- Wind Exposure
  ,                                       !- View Factor to Ground
  ,                                       !- Number of Vertices
  4.57200000000002, -5.32907051820075e-015, 3.048, !- X,Y,Z Vertex 1 {m}
  4.57200000000002, -5.32907051820075e-015, 0, !- X,Y,Z Vertex 2 {m}
  4.57200000000002, 15.7428157866771, 0,  !- X,Y,Z Vertex 3 {m}
  4.57200000000002, 15.7428157866771, 3.048; !- X,Y,Z Vertex 4 {m}

OS:Surface,
  {ad471c0e-c0e0-42fc-a0a5-867f0eff45c2}, !- Handle
  Surface 11,                             !- Name
  Wall,                                   !- Surface Type
  ,                                       !- Construction Name
  {cbf4d349-3e7a-49f4-9936-66f3e5c4d890}, !- Space Name
  Surface,                                !- Outside Boundary Condition
  {5b6c72ae-ba73-4f5e-b44c-ebee2827d5c2}, !- Outside Boundary Condition Object
  NoSun,                                  !- Sun Exposure
  NoWind,                                 !- Wind Exposure
  ,                                       !- View Factor to Ground
  ,                                       !- Number of Vertices
  1.77635683940025e-014, -5.32907051820075e-015, 3.048, !- X,Y,Z Vertex 1 {m}
  1.77635683940025e-014, -5.32907051820075e-015, 0, !- X,Y,Z Vertex 2 {m}
  4.57200000000002, -5.32907051820075e-015, 0, !- X,Y,Z Vertex 3 {m}
  4.57200000000002, -5.32907051820075e-015, 3.048; !- X,Y,Z Vertex 4 {m}

OS:Surface,
  {bd8e49b8-8ca2-4dfd-a5d4-ffc1c9d4fc38}, !- Handle
  Surface 12,                             !- Name
  RoofCeiling,                            !- Surface Type
  ,                                       !- Construction Name
  {cbf4d349-3e7a-49f4-9936-66f3e5c4d890}, !- Space Name
  Outdoors,                               !- Outside Boundary Condition
  ,                                       !- Outside Boundary Condition Object
  SunExposed,                             !- Sun Exposure
  WindExposed,                            !- Wind Exposure
  ,                                       !- View Factor to Ground
  ,                                       !- Number of Vertices
  4.57200000000002, -5.32907051820075e-015, 3.048, !- X,Y,Z Vertex 1 {m}
  4.57200000000002, 15.7428157866771, 3.048, !- X,Y,Z Vertex 2 {m}
  1.77635683940025e-014, 15.7428157866771, 3.048, !- X,Y,Z Vertex 3 {m}
  1.77635683940025e-014, -5.32907051820075e-015, 3.048; !- X,Y,Z Vertex 4 {m}

OS:ThermalZone,
  {704c6613-6b58-4066-942c-cb74b9d94289}, !- Handle
  Zone Office WholeBuilding - Sm Office B end_a - Story Ground, !- Name
  1,                                      !- Multiplier
  ,                                       !- Ceiling Height {m}
  ,                                       !- Volume {m3}
  ,                                       !- Floor Area {m2}
  ,                                       !- Zone Inside Convection Algorithm
  ,                                       !- Zone Outside Convection Algorithm
  ,                                       !- Zone Conditioning Equipment List Name
  {0e3a4a48-decd-4d8d-8fb4-0e9ddd80ac0d}, !- Zone Air Inlet Port List
  {79ee021d-ac36-499f-bd85-1db97255ee53}, !- Zone Air Exhaust Port List
  {e9346080-cc82-4a59-bf6e-f07febc60d07}, !- Zone Air Node Name
  {6593402d-42f4-4755-8a5a-50bb8a714c86}, !- Zone Return Air Port List
  ,                                       !- Primary Daylighting Control Name
  ,                                       !- Fraction of Zone Controlled by Primary Daylighting Control
  ,                                       !- Secondary Daylighting Control Name
  ,                                       !- Fraction of Zone Controlled by Secondary Daylighting Control
  ,                                       !- Illuminance Map Name
  ,                                       !- Group Rendering Name
  ,                                       !- Thermostat Name
  No;                                     !- Use Ideal Air Loads

OS:Node,
  {840c16e0-420e-4869-9fd9-ad48abcc735b}, !- Handle
  Node 2,                                 !- Name
  {e9346080-cc82-4a59-bf6e-f07febc60d07}, !- Inlet Port
  ;                                       !- Outlet Port

OS:Connection,
  {e9346080-cc82-4a59-bf6e-f07febc60d07}, !- Handle
  {6b692c13-5e13-41c9-b1ae-658da187e4ac}, !- Name
  {704c6613-6b58-4066-942c-cb74b9d94289}, !- Source Object
  11,                                     !- Outlet Port
  {840c16e0-420e-4869-9fd9-ad48abcc735b}, !- Target Object
  2;                                      !- Inlet Port

OS:PortList,
  {0e3a4a48-decd-4d8d-8fb4-0e9ddd80ac0d}, !- Handle
  {6f423462-1660-4b4f-bda9-b3f185e9be41}, !- Name
  {704c6613-6b58-4066-942c-cb74b9d94289}; !- HVAC Component

OS:PortList,
  {79ee021d-ac36-499f-bd85-1db97255ee53}, !- Handle
  {2cb1357a-96b7-427d-99fc-840a888e2648}, !- Name
  {704c6613-6b58-4066-942c-cb74b9d94289}; !- HVAC Component

OS:PortList,
  {6593402d-42f4-4755-8a5a-50bb8a714c86}, !- Handle
  {f91db33d-16db-47bb-ae73-41420f41b5ef}, !- Name
  {704c6613-6b58-4066-942c-cb74b9d94289}; !- HVAC Component

OS:Sizing:Zone,
  {7e6eb329-dc5b-40d0-85ec-7c36a3d9b178}, !- Handle
  {704c6613-6b58-4066-942c-cb74b9d94289}, !- Zone or ZoneList Name
  SupplyAirTemperature,                   !- Zone Cooling Design Supply Air Temperature Input Method
  14,                                     !- Zone Cooling Design Supply Air Temperature {C}
  11.11,                                  !- Zone Cooling Design Supply Air Temperature Difference {deltaC}
  SupplyAirTemperature,                   !- Zone Heating Design Supply Air Temperature Input Method
  40,                                     !- Zone Heating Design Supply Air Temperature {C}
  11.11,                                  !- Zone Heating Design Supply Air Temperature Difference {deltaC}
  0.0085,                                 !- Zone Cooling Design Supply Air Humidity Ratio {kg-H2O/kg-air}
  0.008,                                  !- Zone Heating Design Supply Air Humidity Ratio {kg-H2O/kg-air}
  ,                                       !- Zone Heating Sizing Factor
  ,                                       !- Zone Cooling Sizing Factor
  DesignDay,                              !- Cooling Design Air Flow Method
  ,                                       !- Cooling Design Air Flow Rate {m3/s}
  ,                                       !- Cooling Minimum Air Flow per Zone Floor Area {m3/s-m2}
  ,                                       !- Cooling Minimum Air Flow {m3/s}
  ,                                       !- Cooling Minimum Air Flow Fraction
  DesignDay,                              !- Heating Design Air Flow Method
  ,                                       !- Heating Design Air Flow Rate {m3/s}
  ,                                       !- Heating Maximum Air Flow per Zone Floor Area {m3/s-m2}
  ,                                       !- Heating Maximum Air Flow {m3/s}
  ,                                       !- Heating Maximum Air Flow Fraction
  ,                                       !- Design Zone Air Distribution Effectiveness in Cooling Mode
  ,                                       !- Design Zone Air Distribution Effectiveness in Heating Mode
  No,                                     !- Account for Dedicated Outdoor Air System
  NeutralSupplyAir,                       !- Dedicated Outdoor Air System Control Strategy
  autosize,                               !- Dedicated Outdoor Air Low Setpoint Temperature for Design {C}
  autosize;                               !- Dedicated Outdoor Air High Setpoint Temperature for Design {C}

OS:ZoneHVAC:EquipmentList,
  {dddd2e5f-11a9-40c8-85ca-711b072a1b5c}, !- Handle
  Zone HVAC Equipment List 2,             !- Name
  {704c6613-6b58-4066-942c-cb74b9d94289}; !- Thermal Zone

OS:Space,
  {0605a11d-9de1-4a32-b3ed-71cb3963ff8c}, !- Handle
  Office WholeBuilding - Sm Office C end_a - Story Ground, !- Name
  {469af8a7-3772-4cdd-873a-3a79429562b6}, !- Space Type Name
  ,                                       !- Default Construction Set Name
  ,                                       !- Default Schedule Set Name
  -0,                                     !- Direction of Relative North {deg}
  -18.6651118400078,                      !- X Origin {m}
  7.87140789333855,                       !- Y Origin {m}
  0,                                      !- Z Origin {m}
  {f28aae5d-e20f-4471-b20a-6c174c3071e5}, !- Building Story Name
  {fb7ccd7a-fdfa-49fd-baf1-6f554dc5bc48}; !- Thermal Zone Name

OS:Surface,
  {941b519f-e840-4d74-8ab1-40f3b4485caf}, !- Handle
  Surface 13,                             !- Name
  Floor,                                  !- Surface Type
  ,                                       !- Construction Name
  {0605a11d-9de1-4a32-b3ed-71cb3963ff8c}, !- Space Name
  Ground,                                 !- Outside Boundary Condition
  ,                                       !- Outside Boundary Condition Object
  NoSun,                                  !- Sun Exposure
  NoWind,                                 !- Wind Exposure
  ,                                       !- View Factor to Ground
  ,                                       !- Number of Vertices
  1.77635683940025e-014, 5.32907051820075e-015, 0, !- X,Y,Z Vertex 1 {m}
  1.77635683940025e-014, 4.57199999999996, 0, !- X,Y,Z Vertex 2 {m}
  4.57200000000002, 4.57199999999996, 0,  !- X,Y,Z Vertex 3 {m}
  4.57200000000002, 5.32907051820075e-015, 0; !- X,Y,Z Vertex 4 {m}

OS:Surface,
  {dc2a2950-51cc-4db8-957d-bdfd91b991c4}, !- Handle
  Surface 14,                             !- Name
  Wall,                                   !- Surface Type
  ,                                       !- Construction Name
  {0605a11d-9de1-4a32-b3ed-71cb3963ff8c}, !- Space Name
  Outdoors,                               !- Outside Boundary Condition
  ,                                       !- Outside Boundary Condition Object
  SunExposed,                             !- Sun Exposure
  WindExposed,                            !- Wind Exposure
  ,                                       !- View Factor to Ground
  ,                                       !- Number of Vertices
  1.77635683940025e-014, 4.57199999999996, 3.048, !- X,Y,Z Vertex 1 {m}
  1.77635683940025e-014, 4.57199999999996, 0, !- X,Y,Z Vertex 2 {m}
  1.77635683940025e-014, 5.32907051820075e-015, 0, !- X,Y,Z Vertex 3 {m}
  1.77635683940025e-014, 5.32907051820075e-015, 3.048; !- X,Y,Z Vertex 4 {m}

OS:Surface,
  {3dedbdb7-ea2a-4707-b0b3-391159646dc5}, !- Handle
  Surface 15,                             !- Name
  Wall,                                   !- Surface Type
  ,                                       !- Construction Name
  {0605a11d-9de1-4a32-b3ed-71cb3963ff8c}, !- Space Name
  Outdoors,                               !- Outside Boundary Condition
  ,                                       !- Outside Boundary Condition Object
  SunExposed,                             !- Sun Exposure
  WindExposed,                            !- Wind Exposure
  ,                                       !- View Factor to Ground
  ,                                       !- Number of Vertices
  4.57200000000002, 4.57199999999996, 3.048, !- X,Y,Z Vertex 1 {m}
  4.57200000000002, 4.57199999999996, 0,  !- X,Y,Z Vertex 2 {m}
  1.77635683940025e-014, 4.57199999999996, 0, !- X,Y,Z Vertex 3 {m}
  1.77635683940025e-014, 4.57199999999996, 3.048; !- X,Y,Z Vertex 4 {m}

OS:Surface,
  {34a1be45-663b-4206-9b01-d6f012585748}, !- Handle
  Surface 16,                             !- Name