
OS:Version,
  {ad169740-f7bb-4a29-8882-a9cce5df9a71}, !- Handle
  2.7.2;                                  !- Version Identifier

OS:SpaceType,
  {e7d0c17c-8041-4c4e-bd83-2868a6f39016}, !- Handle
  MidriseApartment Apartment,             !- Name
  ,                                       !- Default Construction Set Name
  ,                                       !- Default Schedule Set Name
  {14c1a729-b293-43e9-89f0-9d8f2ccde774}, !- Group Rendering Name
  ,                                       !- Design Specification Outdoor Air Object Name
  ,                                       !- Standards Template
  MidriseApartment,                       !- Standards Building Type
  Apartment;                              !- Standards Space Type

OS:Rendering:Color,
  {14c1a729-b293-43e9-89f0-9d8f2ccde774}, !- Handle
  MidriseApartment Apartment,             !- Name
  78,                                     !- Rendering Red Value
  167,                                    !- Rendering Green Value
  222;                                    !- Rendering Blue Value

OS:SpaceType,
  {10e7d749-b20d-4070-92c3-e6ff6daac7d8}, !- Handle
  MidriseApartment Corridor,              !- Name
  ,                                       !- Default Construction Set Name
  ,                                       !- Default Schedule Set Name
  {cb38b6ac-c704-4bcd-b8c7-0ad8b8128ff0}, !- Group Rendering Name
  ,                                       !- Design Specification Outdoor Air Object Name
  ,                                       !- Standards Template
  MidriseApartment,                       !- Standards Building Type
  Corridor;                               !- Standards Space Type

OS:Rendering:Color,
  {cb38b6ac-c704-4bcd-b8c7-0ad8b8128ff0}, !- Handle
  MidriseApartment Corridor,              !- Name
  169,                                    !- Rendering Red Value
  31,                                     !- Rendering Green Value
  31;                                     !- Rendering Blue Value

OS:SpaceType,
  {3913eec5-87d9-428e-8797-32671dd6f85e}, !- Handle
  MidriseApartment Office,                !- Name
  ,                                       !- Default Construction Set Name
  ,                                       !- Default Schedule Set Name
  {cc83eca0-efdd-4f6f-89fb-59fca38c92ea}, !- Group Rendering Name
  ,                                       !- Design Specification Outdoor Air Object Name
  ,                                       !- Standards Template
  MidriseApartment,                       !- Standards Building Type
  Office;                                 !- Standards Space Type

OS:Rendering:Color,
  {cc83eca0-efdd-4f6f-89fb-59fca38c92ea}, !- Handle
  MidriseApartment Office,                !- Name
  120,                                    !- Rendering Red Value
  230,                                    !- Rendering Green Value
  199;                                    !- Rendering Blue Value

OS:Building,
  {e071b374-f2c1-4a64-9b64-cd81d043f6f3}, !- Handle
  90.1-2004|MidriseApartment,             !- Name
  ,                                       !- Building Sector Type
  ,                                       !- North Axis {deg}
  ,                                       !- Nominal Floor to Floor Height {m}
  ,                                       !- Space Type Name
  ,                                       !- Default Construction Set Name
  ;                                       !- Default Schedule Set Name

OS:Site,
  {ce4b007c-483e-4bcf-aad1-d9e7aac5f051}, !- Handle
  Site 1,                                 !- Name
  ,                                       !- Latitude {deg}
  ,                                       !- Longitude {deg}
  ,                                       !- Time Zone {hr}
  ,                                       !- Elevation {m}
  ;                                       !- Terrain

OS:BuildingStory,
  {a41acfe5-3dc5-4328-8386-fe605747bce2}, !- Handle
  Story Ground,                           !- Name
  0,                                      !- Nominal Z Coordinate {m}
  3.048,                                  !- Nominal Floor to Floor Height {m}
  ,                                       !- Default Construction Set Name
  ,                                       !- Default Schedule Set Name
  ;                                       !- Group Rendering Name

OS:Space,
  {370e153e-ef67-49b7-9a49-bcc91bce56c9}, !- Handle
  MidriseApartment Apartment A end_a - Story Ground, !- Name
  {e7d0c17c-8041-4c4e-bd83-2868a6f39016}, !- Space Type Name
  ,                                       !- Default Construction Set Name
  ,                                       !- Default Schedule Set Name
  -0,                                     !- Direction of Relative North {deg}
  -21.552614690566,                       !- X Origin {m}
  -7.83731443293308,                      !- Y Origin {m}
  0,                                      !- Z Origin {m}
  {a41acfe5-3dc5-4328-8386-fe605747bce2}, !- Building Story Name
  {479f1e9c-a83e-404a-a1d1-0e18e31cf9c3}; !- Thermal Zone Name

OS:Surface,
  {088a9d42-6187-420f-8b71-2e36965d9573}, !- Handle
  Surface 1,                              !- Name
  Floor,                                  !- Surface Type
  ,                                       !- Construction Name
  {370e153e-ef67-49b7-9a49-bcc91bce56c9}, !- Space Name
  Ground,                                 !- Outside Boundary Condition
  ,                                       !- Outside Boundary Condition Object
  NoSun,                                  !- Sun Exposure
  NoWind,                                 !- Wind Exposure
  ,                                       !- View Factor to Ground
  ,                                       !- Number of Vertices
  -2.8421709430404e-014, 0, 0,            !- X,Y,Z Vertex 1 {m}
  -2.8421709430404e-014, 4.572, 0,        !- X,Y,Z Vertex 2 {m}
  4.57199999999997, 4.572, 0,             !- X,Y,Z Vertex 3 {m}
  4.57199999999997, 0, 0;                 !- X,Y,Z Vertex 4 {m}

OS:Surface,
  {0e8a3b81-2e08-4185-acd3-d0d423f3d103}, !- Handle
  Surface 2,                              !- Name
  Wall,                                   !- Surface Type
  ,                                       !- Construction Name
  {370e153e-ef67-49b7-9a49-bcc91bce56c9}, !- Space Name
  Outdoors,                               !- Outside Boundary Condition
  ,                                       !- Outside Boundary Condition Object
  SunExposed,                             !- Sun Exposure
  WindExposed,                            !- Wind Exposure
  ,                                       !- View Factor to Ground
  ,                                       !- Number of Vertices
  -2.8421709430404e-014, 4.572, 3.048,    !- X,Y,Z Vertex 1 {m}
  -2.8421709430404e-014, 4.572, 0,        !- X,Y,Z Vertex 2 {m}
  -2.8421709430404e-014, 0, 0,            !- X,Y,Z Vertex 3 {m}
  -2.8421709430404e-014, 0, 3.048;        !- X,Y,Z Vertex 4 {m}

OS:Surface,
  {5fd9a740-a371-4388-b1c7-4a64dd206439}, !- Handle
  Surface 3,                              !- Name
  Wall,                                   !- Surface Type
  ,                                       !- Construction Name
  {370e153e-ef67-49b7-9a49-bcc91bce56c9}, !- Space Name
  Surface,                                !- Outside Boundary Condition
  {40146dc4-33d5-45db-9f95-ccd3ba6a908b}, !- Outside Boundary Condition Object
  NoSun,                                  !- Sun Exposure
  NoWind,                                 !- Wind Exposure
  ,                                       !- View Factor to Ground
  ,                                       !- Number of Vertices
  4.57199999999997, 4.572, 3.048,         !- X,Y,Z Vertex 1 {m}
  4.57199999999997, 4.572, 0,             !- X,Y,Z Vertex 2 {m}
  -2.8421709430404e-014, 4.572, 0,        !- X,Y,Z Vertex 3 {m}
  -2.8421709430404e-014, 4.572, 3.048;    !- X,Y,Z Vertex 4 {m}

OS:Surface,
  {9d16588a-2a99-4c24-afe2-4bd7b23bdace}, !- Handle
  Surface 4,                              !- Name
  Wall,                                   !- Surface Type
  ,                                       !- Construction Name
  {370e153e-ef67-49b7-9a49-bcc91bce56c9}, !- Space Name
  Surface,                                !- Outside Boundary Condition
  {7e235fe5-e9d9-40ba-80a1-6cea15c8aaeb}, !- Outside Boundary Condition Object
  NoSun,                                  !- Sun Exposure
  NoWind,                                 !- Wind Exposure
  ,                                       !- View Factor to Ground
  ,                                       !- Number of Vertices
  4.57199999999997, 0, 3.048,             !- X,Y,Z Vertex 1 {m}
  4.57199999999997, 0, 0,                 !- X,Y,Z Vertex 2 {m}
  4.57199999999997, 4.572, 0,             !- X,Y,Z Vertex 3 {m}
  4.57199999999997, 4.572, 3.048;         !- X,Y,Z Vertex 4 {m}

OS:Surface,
  {bf25ec6f-360d-4b7e-8e0c-468cfdd6c713}, !- Handle
  Surface 5,                              !- Name
  Wall,                                   !- Surface Type
  ,                                       !- Construction Name
  {370e153e-ef67-49b7-9a49-bcc91bce56c9}, !- Space Name
  Outdoors,                               !- Outside Boundary Condition
  ,                                       !- Outside Boundary Condition Object
  SunExposed,                             !- Sun Exposure
  WindExposed,                            !- Wind Exposure
  ,                                       !- View Factor to Ground
  ,                                       !- Number of Vertices
  -2.8421709430404e-014, 0, 3.048,        !- X,Y,Z Vertex 1 {m}
  -2.8421709430404e-014, 0, 0,            !- X,Y,Z Vertex 2 {m}
  4.57199999999997, 0, 0,                 !- X,Y,Z Vertex 3 {m}
  4.57199999999997, 0, 3.048;             !- X,Y,Z Vertex 4 {m}

OS:Surface,
  {5eed40c3-a9d4-4b24-ac27-aadbc7ddfdf2}, !- Handle
  Surface 6,                              !- Name
  RoofCeiling,                            !- Surface Type
  ,                                       !- Construction Name
  {370e153e-ef67-49b7-9a49-bcc91bce56c9}, !- Space Name
  Adiabatic,                              !- Outside Boundary Condition
  ,                                       !- Outside Boundary Condition Object
  NoSun,                                  !- Sun Exposure
  NoWind,                                 !- Wind Exposure
  ,                                       !- View Factor to Ground
  ,                                       !- Number of Vertices
  4.57199999999997, 0, 3.048,             !- X,Y,Z Vertex 1 {m}
  4.57199999999997, 4.572, 3.048,         !- X,Y,Z Vertex 2 {m}
  -2.8421709430404e-014, 4.572, 3.048,    !- X,Y,Z Vertex 3 {m}
  -2.8421709430404e-014, 0, 3.048;        !- X,Y,Z Vertex 4 {m}

OS:ThermalZone,
  {479f1e9c-a83e-404a-a1d1-0e18e31cf9c3}, !- Handle
  Zone MidriseApartment Apartment A end_a - Story Ground, !- Name
  1,                                      !- Multiplier
  ,                                       !- Ceiling Height {m}
  ,                                       !- Volume {m3}
  ,                                       !- Floor Area {m2}
  ,                                       !- Zone Inside Convection Algorithm
  ,                                       !- Zone Outside Convection Algorithm
  ,                                       !- Zone Conditioning Equipment List Name
  {8f600cf0-8307-4754-916d-305004c8fae1}, !- Zone Air Inlet Port List
  {dc8d1f04-953a-40b3-8946-f9584734f6df}, !- Zone Air Exhaust Port List
  {15b55302-1ae6-45c3-9211-dfa058343885}, !- Zone Air Node Name
  {06812c17-c856-4643-b24a-1d9b190c4814}, !- Zone Return Air Port List
  ,                                       !- Primary Daylighting Control Name
  ,                                       !- Fraction of Zone Controlled by Primary Daylighting Control
  ,                                       !- Secondary Daylighting Control Name
  ,                                       !- Fraction of Zone Controlled by Secondary Daylighting Control
  ,                                       !- Illuminance Map Name
  ,                                       !- Group Rendering Name
  ,                                       !- Thermostat Name
  No;                                     !- Use Ideal Air Loads

OS:Node,
  {cc1a2185-772c-4d0b-a3ad-73d8de713fe5}, !- Handle
  Node 1,                                 !- Name
  {15b55302-1ae6-45c3-9211-dfa058343885}, !- Inlet Port
  ;                                       !- Outlet Port

OS:Connection,
  {15b55302-1ae6-45c3-9211-dfa058343885}, !- Handle
  {458cd0dc-b4bd-45d5-b1ef-beff051258e6}, !- Name
  {479f1e9c-a83e-404a-a1d1-0e18e31cf9c3}, !- Source Object
  11,                                     !- Outlet Port
  {cc1a2185-772c-4d0b-a3ad-73d8de713fe5}, !- Target Object
  2;                                      !- Inlet Port

OS:PortList,
  {8f600cf0-8307-4754-916d-305004c8fae1}, !- Handle
  {3f4885a6-a2aa-4a82-b37e-8208ee12c2b2}, !- Name
  {479f1e9c-a83e-404a-a1d1-0e18e31cf9c3}; !- HVAC Component

OS:PortList,
  {dc8d1f04-953a-40b3-8946-f9584734f6df}, !- Handle
  {f0dd5418-d70b-465f-ad83-04090f8c81da}, !- Name
  {479f1e9c-a83e-404a-a1d1-0e18e31cf9c3}; !- HVAC Component

OS:PortList,
  {06812c17-c856-4643-b24a-1d9b190c4814}, !- Handle
  {0f45c385-fe68-479d-9fea-94b75a524acb}, !- Name
  {479f1e9c-a83e-404a-a1d1-0e18e31cf9c3}; !- HVAC Component

OS:Sizing:Zone,
  {77d1a864-702c-46d5-a9a6-69d04a9f05d9}, !- Handle
  {479f1e9c-a83e-404a-a1d1-0e18e31cf9c3}, !- Zone or ZoneList Name
  SupplyAirTemperature,                   !- Zone Cooling Design Supply Air Temperature Input Method
  14,                                     !- Zone Cooling Design Supply Air Temperature {C}
  11.11,                                  !- Zone Cooling Design Supply Air Temperature Difference {deltaC}
  SupplyAirTemperature,                   !- Zone Heating Design Supply Air Temperature Input Method
  40,                                     !- Zone Heating Design Supply Air Temperature {C}
  11.11,                                  !- Zone Heating Design Supply Air Temperature Difference {deltaC}
  0.0085,                                 !- Zone Cooling Design Supply Air Humidity Ratio {kg-H2O/kg-air}
  0.008,                                  !- Zone Heating Design Supply Air Humidity Ratio {kg-H2O/kg-air}
  ,                                       !- Zone Heating Sizing Factor
  ,                                       !- Zone Cooling Sizing Factor
  DesignDay,                              !- Cooling Design Air Flow Method
  ,                                       !- Cooling Design Air Flow Rate {m3/s}
  ,                                       !- Cooling Minimum Air Flow per Zone Floor Area {m3/s-m2}
  ,                                       !- Cooling Minimum Air Flow {m3/s}
  ,                                       !- Cooling Minimum Air Flow Fraction
  DesignDay,                              !- Heating Design Air Flow Method
  ,                                       !- Heating Design Air Flow Rate {m3/s}
  ,                                       !- Heating Maximum Air Flow per Zone Floor Area {m3/s-m2}
  ,                                       !- Heating Maximum Air Flow {m3/s}
  ,                                       !- Heating Maximum Air Flow Fraction
  ,                                       !- Design Zone Air Distribution Effectiveness in Cooling Mode
  ,                                       !- Design Zone Air Distribution Effectiveness in Heating Mode
  No,                                     !- Account for Dedicated Outdoor Air System
  NeutralSupplyAir,                       !- Dedicated Outdoor Air System Control Strategy
  autosize,                               !- Dedicated Outdoor Air Low Setpoint Temperature for Design {C}
  autosize;                               !- Dedicated Outdoor Air High Setpoint Temperature for Design {C}

OS:ZoneHVAC:EquipmentList,
  {a0392893-2d8e-4a2f-a9f1-a04703446847}, !- Handle
  Zone HVAC Equipment List 1,             !- Name
  {479f1e9c-a83e-404a-a1d1-0e18e31cf9c3}; !- Thermal Zone

OS:Space,
  {2036aebe-b383-46f9-873f-7d5b4015d575}, !- Handle
  MidriseApartment Apartment B end_a - Story Ground, !- Name
  {e7d0c17c-8041-4c4e-bd83-2868a6f39016}, !- Space Type Name
  ,                                       !- Default Construction Set Name
  ,                                       !- Default Schedule Set Name
  -0,                                     !- Direction of Relative North {deg}
  -21.552614690566,                       !- X Origin {m}
  -3.26531443293308,                      !- Y Origin {m}
  0,                                      !- Z Origin {m}
  {a41acfe5-3dc5-4328-8386-fe605747bce2}, !- Building Story Name
  {54fa7b64-a030-4187-92a6-334613173233}; !- Thermal Zone Name

OS:Surface,
  {75710f95-80fc-490d-bd5f-8775a8a48cfb}, !- Handle
  Surface 7,                              !- Name
  Floor,                                  !- Surface Type
  ,                                       !- Construction Name
  {2036aebe-b383-46f9-873f-7d5b4015d575}, !- Space Name
  Ground,                                 !- Outside Boundary Condition
  ,                                       !- Outside Boundary Condition Object
  NoSun,                                  !- Sun Exposure
  NoWind,                                 !- Wind Exposure
  ,                                       !- View Factor to Ground
  ,                                       !- Number of Vertices
  -2.8421709430404e-014, -4.44089209850063e-016, 0, !- X,Y,Z Vertex 1 {m}
  -2.8421709430404e-014, 6.53062886586616, 0, !- X,Y,Z Vertex 2 {m}
  4.57199999999997, 6.53062886586616, 0,  !- X,Y,Z Vertex 3 {m}
  4.57199999999997, -4.44089209850063e-016, 0; !- X,Y,Z Vertex 4 {m}

OS:Surface,
  {0e820890-ff79-42b6-b3b1-9dc1d4caabdd}, !- Handle
  Surface 8,                              !- Name
  Wall,                                   !- Surface Type
  ,                                       !- Construction Name
  {2036aebe-b383-46f9-873f-7d5b4015d575}, !- Space Name
  Outdoors,                               !- Outside Boundary Condition
  ,                                       !- Outside Boundary Condition Object
  SunExposed,                             !- Sun Exposure
  WindExposed,                            !- Wind Exposure
  ,                                       !- View Factor to Ground
  ,                                       !- Number of Vertices
  -2.8421709430404e-014, 6.53062886586616, 3.048, !- X,Y,Z Vertex 1 {m}
  -2.8421709430404e-014, 6.53062886586616, 0, !- X,Y,Z Vertex 2 {m}
  -2.8421709430404e-014, -4.44089209850063e-016, 0, !- X,Y,Z Vertex 3 {m}
  -2.8421709430404e-014, -4.44089209850063e-016, 3.048; !- X,Y,Z Vertex 4 {m}

OS:Surface,
  {7898fcb9-8b2f-41d8-b186-9a87ccb2f4fa}, !- Handle
  Surface 9,                              !- Name
  Wall,                                   !- Surface Type
  ,                                       !- Construction Name
  {2036aebe-b383-46f9-873f-7d5b4015d575}, !- Space Name
  Surface,                                !- Outside Boundary Condition
  {204184e4-443e-4e7f-bfe3-b8ab4527a584}, !- Outside Boundary Condition Object
  NoSun,                                  !- Sun Exposure
  NoWind,                                 !- Wind Exposure
  ,                                       !- View Factor to Ground
  ,                                       !- Number of Vertices
  4.57199999999997, 6.53062886586616, 3.048, !- X,Y,Z Vertex 1 {m}
  4.57199999999997, 6.53062886586616, 0,  !- X,Y,Z Vertex 2 {m}
  -2.8421709430404e-014, 6.53062886586616, 0, !- X,Y,Z Vertex 3 {m}
  -2.8421709430404e-014, 6.53062886586616, 3.048; !- X,Y,Z Vertex 4 {m}

OS:Surface,
  {f82224dd-1014-48ca-9a5b-d098153532f8}, !- Handle
  Surface 10,                             !- Name
  Wall,                                   !- Surface Type
  ,                                       !- Construction Name
  {2036aebe-b383-46f9-873f-7d5b4015d575}, !- Space Name
  Surface,                                !- Outside Boundary Condition
  {1a1d8017-fac6-4ae9-b078-6244c88787d6}, !- Outside Boundary Condition Object
  NoSun,                                  !- Sun Exposure
  NoWind,                                 !- Wind Exposure
  ,                                       !- View Factor to Ground
  ,                                       !- Number of Vertices
  4.57199999999997, -4.44089209850063e-016, 3.048, !- X,Y,Z Vertex 1 {m}
  4.57199999999997, -4.44089209850063e-016, 0, !- X,Y,Z Vertex 2 {m}
  4.57199999999997, 6.53062886586616, 0,  !- X,Y,Z Vertex 3 {m}
  4.57199999999997, 6.53062886586616, 3.048; !- X,Y,Z Vertex 4 {m}

OS:Surface,
  {40146dc4-33d5-45db-9f95-ccd3ba6a908b}, !- Handle
  Surface 11,                             !- Name
  Wall,                                   !- Surface Type
  ,                                       !- Construction Name
  {2036aebe-b383-46f9-873f-7d5b4015d575}, !- Space Name
  Surface,                                !- Outside Boundary Condition
  {5fd9a740-a371-4388-b1c7-4a64dd206439}, !- Outside Boundary Condition Object
  NoSun,                                  !- Sun Exposure
  NoWind,                                 !- Wind Exposure
  ,                                       !- View Factor to Ground
  ,                                       !- Number of Vertices
  -2.8421709430404e-014, -4.44089209850063e-016, 3.048, !- X,Y,Z Vertex 1 {m}
  -2.8421709430404e-014, -4.44089209850063e-016, 0, !- X,Y,Z Vertex 2 {m}
  4.57199999999997, -4.44089209850063e-016, 0, !- X,Y,Z Vertex 3 {m}
  4.57199999999997, -4.44089209850063e-016, 3.048; !- X,Y,Z Vertex 4 {m}

OS:Surface,
  {aa5a3136-24c7-40a2-8135-8d7eff03f415}, !- Handle
  Surface 12,                             !- Name
  RoofCeiling,                            !- Surface Type
  ,                                       !- Construction Name
  {2036aebe-b383-46f9-873f-7d5b4015d575}, !- Space Name
  Adiabatic,                              !- Outside Boundary Condition
  ,                                       !- Outside Boundary Condition Object
  NoSun,                                  !- Sun Exposure
  NoWind,                                 !- Wind Exposure
  ,                                       !- View Factor to Ground
  ,                                       !- Number of Vertices
  4.57199999999997, -4.44089209850063e-016, 3.048, !- X,Y,Z Vertex 1 {m}
  4.57199999999997, 6.53062886586616, 3.048, !- X,Y,Z Vertex 2 {m}
  -2.8421709430404e-014, 6.53062886586616, 3.048, !- X,Y,Z Vertex 3 {m}
  -2.8421709430404e-014, -4.44089209850063e-016, 3.048; !- X,Y,Z Vertex 4 {m}

OS:ThermalZone,
  {54fa7b64-a030-4187-92a6-334613173233}, !- Handle
  Zone MidriseApartment Apartment B end_a - Story Ground, !- Name
  1,                                      !- Multiplier
  ,                                       !- Ceiling Height {m}
  ,                                       !- Volume {m3}
  ,                                       !- Floor Area {m2}
  ,                                       !- Zone Inside Convection Algorithm
  ,                                       !- Zone Outside Convection Algorithm
  ,                                       !- Zone Conditioning Equipment List Name
  {7279872c-ce8d-4153-a780-c4b93939b56d}, !- Zone Air Inlet Port List
  {d228beee-12b9-4a0a-a707-a772ef1a2588}, !- Zone Air Exhaust Port List
  {f4b80adb-9134-4409-9158-1e724544cad5}, !- Zone Air Node Name
  {4c54e54c-eed8-4ce8-9e10-c204e12cb5c3}, !- Zone Return Air Port List
  ,                                       !- Primary Daylighting Control Name
  ,                                       !- Fraction of Zone Controlled by Primary Daylighting Control
  ,                                       !- Secondary Daylighting Control Name
  ,                                       !- Fraction of Zone Controlled by Secondary Daylighting Control
  ,                                       !- Illuminance Map Name
  ,                                       !- Group Rendering Name
  ,                                       !- Thermostat Name
  No;                                     !- Use Ideal Air Loads

OS:Node,
  {a12cb7be-dde0-438b-8d99-264b1b6f8129}, !- Handle
  Node 2,                                 !- Name
  {f4b80adb-9134-4409-9158-1e724544cad5}, !- Inlet Port
  ;                                       !- Outlet Port

OS:Connection,
  {f4b80adb-9134-4409-9158-1e724544cad5}, !- Handle
  {82ca7e0d-c12b-4b26-9c9d-9d3dc02b5a73}, !- Name
  {54fa7b64-a030-4187-92a6-334613173233}, !- Source Object
  11,                                     !- Outlet Port
  {a12cb7be-dde0-438b-8d99-264b1b6f8129}, !- Target Object
  2;                                      !- Inlet Port

OS:PortList,
  {7279872c-ce8d-4153-a780-c4b93939b56d}, !- Handle
  {107489a0-903a-47ce-b7ba-f962c90695e2}, !- Name
  {54fa7b64-a030-4187-92a6-334613173233}; !- HVAC Component

OS:PortList,
  {d228beee-12b9-4a0a-a707-a772ef1a2588}, !- Handle
  {d6a7ec08-6bf2-48aa-a0e6-3cc082f62632}, !- Name
  {54fa7b64-a030-4187-92a6-334613173233}; !- HVAC Component

OS:PortList,
  {4c54e54c-eed8-4ce8-9e10-c204e12cb5c3}, !- Handle
  {608aa1d8-fb2f-43e5-a715-f8de4d6458dc}, !- Name
  {54fa7b64-a030-4187-92a6-334613173233}; !- HVAC Component

OS:Sizing:Zone,
  {906a7654-495e-4888-ae18-61917d09004f}, !- Handle
  {54fa7b64-a030-4187-92a6-334613173233}, !- Zone or ZoneList Name
  SupplyAirTemperature,                   !- Zone Cooling Design Supply Air Temperature Input Method
  14,                                     !- Zone Cooling Design Supply Air Temperature {C}
  11.11,                                  !- Zone Cooling Design Supply Air Temperature Difference {deltaC}
  SupplyAirTemperature,                   !- Zone Heating Design Supply Air Temperature Input Method
  40,                                     !- Zone Heating Design Supply Air Temperature {C}
  11.11,                                  !- Zone Heating Design Supply Air Temperature Difference {deltaC}
  0.0085,                                 !- Zone Cooling Design Supply Air Humidity Ratio {kg-H2O/kg-air}
  0.008,                                  !- Zone Heating Design Supply Air Humidity Ratio {kg-H2O/kg-air}
  ,                                       !- Zone Heating Sizing Factor
  ,                                       !- Zone Cooling Sizing Factor
  DesignDay,                              !- Cooling Design Air Flow Method
  ,                                       !- Cooling Design Air Flow Rate {m3/s}
  ,                                       !- Cooling Minimum Air Flow per Zone Floor Area {m3/s-m2}
  ,                                       !- Cooling Minimum Air Flow {m3/s}
  ,                                       !- Cooling Minimum Air Flow Fraction
  DesignDay,                              !- Heating Design Air Flow Method
  ,                                       !- Heating Design Air Flow Rate {m3/s}
  ,                                       !- Heating Maximum Air Flow per Zone Floor Area {m3/s-m2}
  ,                                       !- Heating Maximum Air Flow {m3/s}
  ,                                       !- Heating Maximum Air Flow Fraction
  ,                                       !- Design Zone Air Distribution Effectiveness in Cooling Mode
  ,                                       !- Design Zone Air Distribution Effectiveness in Heating Mode
  No,                                     !- Account for Dedicated Outdoor Air System
  NeutralSupplyAir,                       !- Dedicated Outdoor Air System Control Strategy
  autosize,                               !- Dedicated Outdoor Air Low Setpoint Temperature for Design {C}
  autosize;                               !- Dedicated Outdoor Air High Setpoint Temperature for Design {C}

OS:ZoneHVAC:EquipmentList,
  {a51c0410-67db-4ff1-a630-3251d2e7239f}, !- Handle
  Zone HVAC Equipment List 2,             !- Name
  {54fa7b64-a030-4187-92a6-334613173233}; !- Thermal Zone

OS:Space,
  {9bb1d1b4-c46d-46c1-8836-5cbe6e0834c2}, !- Handle
  MidriseApartment Apartment C end_a - Story Ground, !- Name
  {e7d0c17c-8041-4c4e-bd83-2868a6f39016}, !- Space Type Name
  ,                                       !- Default Construction Set Name
  ,                                       !- Default Schedule Set Name
  -0,                                     !- Direction of Relative North {deg}
  -21.552614690566,                       !- X Origin {m}
  3.26531443293308,                       !- Y Origin {m}
  0,                                      !- Z Origin {m}
  {a41acfe5-3dc5-4328-8386-fe605747bce2}, !- Building Story Name
  {2c0a122e-6174-4c3a-92fc-1c14bec4e2fa}; !- Thermal Zone Name

OS:Surface,
  {d62573b5-4725-4f8e-9ae5-e0b4ae332f2a}, !- Handle
  Surface 13,                             !- Name
  Floor,                                  !- Surface Type
  ,                                       !- Construction Name
  {9bb1d1b4-c46d-46c1-8836-5cbe6e0834c2}, !- Space Name
  Ground,                                 !- Outside Boundary Condition
  ,                                       !- Outside Boundary Condition Object
  NoSun,                                  !- Sun Exposure
  NoWind,                                 !- Wind Exposure
  ,                                       !- View Factor to Ground
  ,                                       !- Number of Vertices
  -2.8421709430404e-014, 4.44089209850063e-016, 0, !- X,Y,Z Vertex 1 {m}
  -2.8421709430404e-014, 4.572, 0,        !- X,Y,Z Vertex 2 {m}
  4.57199999999997, 4.572, 0,             !- X,Y,Z Vertex 3 {m}
  4.57199999999997, 4.44089209850063e-016, 0; !- X,Y,Z Vertex 4 {m}

OS:Surface,
  {f98518d5-de1b-469b-b873-da6dfc33de0b}, !- Handle
  Surface 14,                             !- Name
  Wall,                                   !- Surface Type
  ,                                       !- Construction Name
  {9bb1d1b4-c46d-46c1-8836-5cbe6e0834c2}, !- Space Name