
OS:Version,
  {fdeba2ea-0735-461b-b881-091d78acd202}, !- Handle
  2.7.2;                                  !- Version Identifier

OS:SpaceType,
  {206bd70f-c674-43b3-b822-cc2da6ee025c}, !- Handle
  Office WholeBuilding - Sm Office,       !- Name
  ,                                       !- Default Construction Set Name
  ,                                       !- Default Schedule Set Name
  {8ee450d2-e8d7-4e26-878c-38b711241099}, !- Group Rendering Name
  ,                                       !- Design Specification Outdoor Air Object Name
  ,                                       !- Standards Template
  Office,                                 !- Standards Building Type
  WholeBuilding - Sm Office;              !- Standards Space Type

OS:Rendering:Color,
  {8ee450d2-e8d7-4e26-878c-38b711241099}, !- Handle
  Office WholeBuilding - Sm Office,       !- Name
  120,                                    !- Rendering Red Value
  230,                                    !- Rendering Green Value
  199;                                    !- Rendering Blue Value

OS:Building,
  {c2481d76-a8ac-463f-a287-f0afa548a8f7}, !- Handle
  90.1-2004|SmallOffice,                  !- Name
  ,                                       !- Building Sector Type
  ,                                       !- North Axis {deg}
  ,                                       !- Nominal Floor to Floor Height {m}
  {206bd70f-c674-43b3-b822-cc2da6ee025c}, !- Space Type Name
  ,                                       !- Default Construction Set Name
  ;                                       !- Default Schedule Set Name

OS:Site,
  {5ce6e375-285d-4c4f-8313-bbac28907fb9}, !- Handle
  Site 1,                                 !- Name
  ,                                       !- Latitude {deg}
  ,                                       !- Longitude {deg}
  ,                                       !- Time Zone {hr}
  ,                                       !- Elevation {m}
  ;                                       !- Terrain

OS:BuildingStory,
  {d3f2d2ac-59b8-421d-9813-14361654591d}, !- Handle
  Story Ground,                           !- Name
  0,                                      !- Nominal Z Coordinate {m}
  3.048,                                  !- Nominal Floor to Floor Height {m}
  ,                                       !- Default Construction Set Name
  ,                                       !- Default Schedule Set Name
  ;                                       !- Group Rendering Name

OS:Space,
  {ec6e12ff-5690-4563-b147-6d43282e94cf}, !- Handle
  West Perimeter Space - Story Ground,    !- Name
  ,                                       !- Space Type Name
  ,                                       !- Default Construction Set Name
  ,                                       !- Default Schedule Set Name
  -0,                                     !- Direction of Relative North {deg}
  -17.7964858635324,                      !- X Origin {m}
  -11.8643239090216,                      !- Y Origin {m}
  0,                                      !- Z Origin {m}
  {d3f2d2ac-59b8-421d-9813-14361654591d}, !- Building Story Name
  {2514f24f-ad34-4cb4-84c5-11d08ecc2118}; !- Thermal Zone Name

OS:Surface,
  {2cfcfe1e-6f4d-4f0c-a94d-7366ddd9b7ee}, !- Handle
  Surface 1,                              !- Name
  Floor,                                  !- Surface Type
  ,                                       !- Construction Name
  {ec6e12ff-5690-4563-b147-6d43282e94cf}, !- Space Name
  Ground,                                 !- Outside Boundary Condition
  ,                                       !- Outside Boundary Condition Object
  NoSun,                                  !- Sun Exposure
  NoWind,                                 !- Wind Exposure
  ,                                       !- View Factor to Ground
  ,                                       !- Number of Vertices
  1.77635683940025e-014, 8.88178419700125e-015, 0, !- X,Y,Z Vertex 1 {m}
  1.77635683940025e-014, 23.7286478180432, 0, !- X,Y,Z Vertex 2 {m}
  4.57200000000002, 19.1566478180432, 0,  !- X,Y,Z Vertex 3 {m}
  4.57200000000002, 4.572, 0;             !- X,Y,Z Vertex 4 {m}

OS:Surface,
  {c4ee204d-ff51-47da-9acc-ef431eead5f5}, !- Handle
  Surface 2,                              !- Name
  Wall,                                   !- Surface Type
  ,                                       !- Construction Name
  {ec6e12ff-5690-4563-b147-6d43282e94cf}, !- Space Name
  Outdoors,                               !- Outside Boundary Condition
  ,                                       !- Outside Boundary Condition Object
  SunExposed,                             !- Sun Exposure
  WindExposed,                            !- Wind Exposure
  ,                                       !- View Factor to Ground
  ,                                       !- Number of Vertices
  1.77635683940025e-014, 23.7286478180432, 3.048, !- X,Y,Z Vertex 1 {m}
  1.77635683940025e-014, 23.7286478180432, 0, !- X,Y,Z Vertex 2 {m}
  1.77635683940025e-014, 8.88178419700125e-015, 0, !- X,Y,Z Vertex 3 {m}
  1.77635683940025e-014, 8.88178419700125e-015, 3.048; !- X,Y,Z Vertex 4 {m}

OS:Surface,
  {26897536-d3f9-4e05-bb13-a776cad6347a}, !- Handle
  Surface 3,                              !- Name
  Wall,                                   !- Surface Type
  ,                                       !- Construction Name
  {ec6e12ff-5690-4563-b147-6d43282e94cf}, !- Space Name
  Surface,                                !- Outside Boundary Condition
  {6bf7a73c-0e56-4eeb-80c4-585aa877fc8b}, !- Outside Boundary Condition Object
  NoSun,                                  !- Sun Exposure
  NoWind,                                 !- Wind Exposure
  ,                                       !- View Factor to Ground
  ,                                       !- Number of Vertices
  4.57200000000002, 19.1566478180432, 3.048, !- X,Y,Z Vertex 1 {m}
  4.57200000000002, 19.1566478180432, 0,  !- X,Y,Z Vertex 2 {m}
  1.77635683940025e-014, 23.7286478180432, 0, !- X,Y,Z Vertex 3 {m}
  1.77635683940025e-014, 23.7286478180432, 3.048; !- X,Y,Z Vertex 4 {m}

OS:Surface,
  {9bd0a5f9-ede9-449c-8d67-8eb1ceaecb32}, !- Handle
  Surface 4,                              !- Name
  Wall,                                   !- Surface Type
  ,                                       !- Construction Name
  {ec6e12ff-5690-4563-b147-6d43282e94cf}, !- Space Name
  Surface,                                !- Outside Boundary Condition
  {47a6caf3-fdb5-4c61-99b6-050bbafaf456}, !- Outside Boundary Condition Object
  NoSun,                                  !- Sun Exposure
  NoWind,                                 !- Wind Exposure
  ,                                       !- View Factor to Ground
  ,                                       !- Number of Vertices
  4.57200000000002, 4.572, 3.048,         !- X,Y,Z Vertex 1 {m}
  4.57200000000002, 4.572, 0,             !- X,Y,Z Vertex 2 {m}
  4.57200000000002, 19.1566478180432, 0,  !- X,Y,Z Vertex 3 {m}
  4.57200000000002, 19.1566478180432, 3.048; !- X,Y,Z Vertex 4 {m}

OS:Surface,
  {0432c0d4-e2c0-4ea0-b1d3-f532898ba7b0}, !- Handle
  Surface 5,                              !- Name
  Wall,                                   !- Surface Type
  ,                                       !- Construction Name
  {ec6e12ff-5690-4563-b147-6d43282e94cf}, !- Space Name
  Surface,                                !- Outside Boundary Condition
  {2e6ea46e-f46d-4d3d-ab9e-b62babd5ffe6}, !- Outside Boundary Condition Object
  NoSun,                                  !- Sun Exposure
  NoWind,                                 !- Wind Exposure
  ,                                       !- View Factor to Ground
  ,                                       !- Number of Vertices
  1.77635683940025e-014, 8.88178419700125e-015, 3.048, !- X,Y,Z Vertex 1 {m}
  1.77635683940025e-014, 8.88178419700125e-015, 0, !- X,Y,Z Vertex 2 {m}
  4.57200000000002, 4.572, 0,             !- X,Y,Z Vertex 3 {m}
  4.57200000000002, 4.572, 3.048;         !- X,Y,Z Vertex 4 {m}

OS:Surface,
  {2364d83d-530f-4a56-b23f-c8e8bc9e2e6b}, !- Handle
  Surface 6,                              !- Name
  RoofCeiling,                            !- Surface Type
  ,                                       !- Construction Name
  {ec6e12ff-5690-4563-b147-6d43282e94cf}, !- Space Name
  Adiabatic,                              !- Outside Boundary Condition
  ,                                       !- Outside Boundary Condition Object
  NoSun,                                  !- Sun Exposure
  NoWind,                                 !- Wind Exposure
  ,                                       !- View Factor to Ground
  ,                                       !- Number of Vertices
  4.57200000000002, 4.572, 3.048,         !- X,Y,Z Vertex 1 {m}
  4.57200000000002, 19.1566478180432, 3.048, !- X,Y,Z Vertex 2 {m}
  1.77635683940025e-014, 23.7286478180432, 3.048, !- X,Y,Z Vertex 3 {m}
  1.77635683940025e-014, 8.88178419700125e-015, 3.048; !- X,Y,Z Vertex 4 {m}

OS:ThermalZone,
  {2514f24f-ad34-4cb4-84c5-11d08ecc2118}, !- Handle
  Zone West Perimeter Space - Story Ground, !- Name
  1,                                      !- Multiplier
  ,                                       !- Ceiling Height {m}
  ,                                       !- Volume {m3}
  ,                                       !- Floor Area {m2}
  ,                                       !- Zone Inside Convection Algorithm
  ,                                       !- Zone Outside Convection Algorithm
  ,                                       !- Zone Conditioning Equipment List Name
  {a8e4efd3-c95e-4626-941c-bdbc657ddb3e}, !- Zone Air Inlet Port List
  {6032d3fc-f1a0-4b0e-b3b5-2e17470a3f53}, !- Zone Air Exhaust Port List
  {6d8aed6c-6e17-48c9-be54-966cd9372924}, !- Zone Air Node Name
  {c54ab9fa-2cc7-4ef1-868d-02aac2969080}, !- Zone Return Air Port List
  ,                                       !- Primary Daylighting Control Name
  ,                                       !- Fraction of Zone Controlled by Primary Daylighting Control
  ,                                       !- Secondary Daylighting Control Name
  ,                                       !- Fraction of Zone Controlled by Secondary Daylighting Control
  ,                                       !- Illuminance Map Name
  ,                                       !- Group Rendering Name
  ,                                       !- Thermostat Name
  No;                                     !- Use Ideal Air Loads

OS:Node,
  {fddbcadc-a5d6-41ba-b356-1d57d781d634}, !- Handle
  Node 1,                                 !- Name
  {6d8aed6c-6e17-48c9-be54-966cd9372924}, !- Inlet Port
  ;                                       !- Outlet Port

OS:Connection,
  {6d8aed6c-6e17-48c9-be54-966cd9372924}, !- Handle
  {27582d99-7980-40f5-a74c-06d838c1fb21}, !- Name
  {2514f24f-ad34-4cb4-84c5-11d08ecc2118}, !- Source Object
  11,                                     !- Outlet Port
  {fddbcadc-a5d6-41ba-b356-1d57d781d634}, !- Target Object
  2;                                      !- Inlet Port

OS:PortList,
  {a8e4efd3-c95e-4626-941c-bdbc657ddb3e}, !- Handle
  {53cfc9d2-4e3a-43e5-b16b-a57b3206c98c}, !- Name
  {2514f24f-ad34-4cb4-84c5-11d08ecc2118}; !- HVAC Component

OS:PortList,
  {6032d3fc-f1a0-4b0e-b3b5-2e17470a3f53}, !- Handle
  {03fad6b4-254c-43a2-85d4-205ea911c2be}, !- Name
  {2514f24f-ad34-4cb4-84c5-11d08ecc2118}; !- HVAC Component

OS:PortList,
  {c54ab9fa-2cc7-4ef1-868d-02aac2969080}, !- Handle
  {d688d508-3b75-4f3f-b2a4-b7e9582b9fa7}, !- Name
  {2514f24f-ad34-4cb4-84c5-11d08ecc2118}; !- HVAC Component

OS:Sizing:Zone,
  {7efdc1a9-12f0-4020-b4bf-d848adb9244c}, !- Handle
  {2514f24f-ad34-4cb4-84c5-11d08ecc2118}, !- Zone or ZoneList Name
  SupplyAirTemperature,                   !- Zone Cooling Design Supply Air Temperature Input Method
  14,                                     !- Zone Cooling Design Supply Air Temperature {C}
  11.11,                                  !- Zone Cooling Design Supply Air Temperature Difference {deltaC}
  SupplyAirTemperature,                   !- Zone Heating Design Supply Air Temperature Input Method
  40,                                     !- Zone Heating Design Supply Air Temperature {C}
  11.11,                                  !- Zone Heating Design Supply Air Temperature Difference {deltaC}
  0.0085,                                 !- Zone Cooling Design Supply Air Humidity Ratio {kg-H2O/kg-air}
  0.008,                                  !- Zone Heating Design Supply Air Humidity Ratio {kg-H2O/kg-air}
  ,                                       !- Zone Heating Sizing Factor
  ,                                       !- Zone Cooling Sizing Factor
  DesignDay,                              !- Cooling Design Air Flow Method
  ,                                       !- Cooling Design Air Flow Rate {m3/s}
  ,                                       !- Cooling Minimum Air Flow per Zone Floor Area {m3/s-m2}
  ,                                       !- Cooling Minimum Air Flow {m3/s}
  ,                                       !- Cooling Minimum Air Flow Fraction
  DesignDay,                              !- Heating Design Air Flow Method
  ,                                       !- Heating Design Air Flow Rate {m3/s}
  ,                                       !- Heating Maximum Air Flow per Zone Floor Area {m3/s-m2}
  ,                                       !- Heating Maximum Air Flow {m3/s}
  ,                                       !- Heating Maximum Air Flow Fraction
  ,                                       !- Design Zone Air Distribution Effectiveness in Cooling Mode
  ,                                       !- Design Zone Air Distribution Effectiveness in Heating Mode
  No,                                     !- Account for Dedicated Outdoor Air System
  NeutralSupplyAir,                       !- Dedicated Outdoor Air System Control Strategy
  autosize,                               !- Dedicated Outdoor Air Low Setpoint Temperature for Design {C}
  autosize;                               !- Dedicated Outdoor Air High Setpoint Temperature for Design {C}

OS:ZoneHVAC:EquipmentList,
  {d81cd5e4-e49d-4c52-8e1c-8afed7603720}, !- Handle
  Zone HVAC Equipment List 1,             !- Name
  {2514f24f-ad34-4cb4-84c5-11d08ecc2118}; !- Thermal Zone

OS:Space,
  {609b31a9-c030-432c-9318-726c0855a2e5}, !- Handle
  North Perimeter Space - Story Ground,   !- Name
  ,                                       !- Space Type Name
  ,                                       !- Default Construction Set Name
  ,                                       !- Default Schedule Set Name
  -0,                                     !- Direction of Relative North {deg}
  -17.7964858635324,                      !- X Origin {m}
  11.8643239090216,                       !- Y Origin {m}
  0,                                      !- Z Origin {m}
  {d3f2d2ac-59b8-421d-9813-14361654591d}, !- Building Story Name
  {8cb77fa5-cefb-4626-aa36-d44e6aef1748}; !- Thermal Zone Name

OS:Surface,
  {d5f89158-c521-4f32-b52d-de3498d40ef5}, !- Handle
  Surface 7,                              !- Name
  Floor,                                  !- Surface Type
  ,                                       !- Construction Name
  {609b31a9-c030-432c-9318-726c0855a2e5}, !- Space Name
  Ground,                                 !- Outside Boundary Condition
  ,                                       !- Outside Boundary Condition Object
  NoSun,                                  !- Sun Exposure
  NoWind,                                 !- Wind Exposure
  ,                                       !- View Factor to Ground
  ,                                       !- Number of Vertices
  1.77635683940025e-014, -8.88178419700125e-015, 0, !- X,Y,Z Vertex 1 {m}
  35.5929717270648, -8.88178419700125e-015, 0, !- X,Y,Z Vertex 2 {m}
  31.0209717270648, -4.572, 0,            !- X,Y,Z Vertex 3 {m}
  4.57200000000002, -4.572, 0;            !- X,Y,Z Vertex 4 {m}

OS:Surface,
  {a91949e7-e538-46b1-8e97-daddc23ea1fc}, !- Handle
  Surface 8,                              !- Name
  Wall,                                   !- Surface Type
  ,                                       !- Construction Name
  {609b31a9-c030-432c-9318-726c0855a2e5}, !- Space Name
  Outdoors,                               !- Outside Boundary Condition
  ,                                       !- Outside Boundary Condition Object
  SunExposed,                             !- Sun Exposure
  WindExposed,                            !- Wind Exposure
  ,                                       !- View Factor to Ground
  ,                                       !- Number of Vertices
  35.5929717270648, -8.88178419700125e-015, 3.048, !- X,Y,Z Vertex 1 {m}
  35.5929717270648, -8.88178419700125e-015, 0, !- X,Y,Z Vertex 2 {m}
  1.77635683940025e-014, -8.88178419700125e-015, 0, !- X,Y,Z Vertex 3 {m}
  1.77635683940025e-014, -8.88178419700125e-015, 3.048; !- X,Y,Z Vertex 4 {m}

OS:Surface,
  {0ee56ff7-b948-40ee-8eec-9aef999461e5}, !- Handle
  Surface 9,                              !- Name
  Wall,                                   !- Surface Type
  ,                                       !- Construction Name
  {609b31a9-c030-432c-9318-726c0855a2e5}, !- Space Name
  Surface,                                !- Outside Boundary Condition
  {ddd8bf53-addd-424b-a78c-7baa4f6b57b2}, !- Outside Boundary Condition Object
  NoSun,                                  !- Sun Exposure
  NoWind,                                 !- Wind Exposure
  ,                                       !- View Factor to Ground
  ,                                       !- Number of Vertices
  31.0209717270648, -4.572, 3.048,        !- X,Y,Z Vertex 1 {m}
  31.0209717270648, -4.572, 0,            !- X,Y,Z Vertex 2 {m}
  35.5929717270648, -8.88178419700125e-015, 0, !- X,Y,Z Vertex 3 {m}
  35.5929717270648, -8.88178419700125e-015, 3.048; !- X,Y,Z Vertex 4 {m}

OS:Surface,
  {a79c1747-1b98-49cd-bed0-48e01a952ac0}, !- Handle
  Surface 10,                             !- Name
  Wall,                                   !- Surface Type
  ,                                       !- Construction Name
  {609b31a9-c030-432c-9318-726c0855a2e5}, !- Space Name
  Surface,                                !- Outside Boundary Condition
  {79389f77-e4df-4bb9-b112-62bb7036914c}, !- Outside Boundary Condition Object
  NoSun,                                  !- Sun Exposure
  NoWind,                                 !- Wind Exposure
  ,                                       !- View Factor to Ground
  ,                                       !- Number of Vertices
  4.57200000000002, -4.572, 3.048,        !- X,Y,Z Vertex 1 {m}
  4.57200000000002, -4.572, 0,            !- X,Y,Z Vertex 2 {m}
  31.0209717270648, -4.572, 0,            !- X,Y,Z Vertex 3 {m}
  31.0209717270648, -4.572, 3.048;        !- X,Y,Z Vertex 4 {m}

OS:Surface,
  {6bf7a73c-0e56-4eeb-80c4-585aa877fc8b}, !- Handle
  Surface 11,                             !- Name
  Wall,                                   !- Surface Type
  ,                                       !- Construction Name
  {609b31a9-c030-432c-9318-726c0855a2e5}, !- Space Name
  Surface,                                !- Outside Boundary Condition
  {26897536-d3f9-4e05-bb13-a776cad6347a}, !- Outside Boundary Condition Object
  NoSun,                                  !- Sun Exposure
  NoWind,                                 !- Wind Exposure
  ,                                       !- View Factor to Ground
  ,                                       !- Number of Vertices
  1.77635683940025e-014, -8.88178419700125e-015, 3.048, !- X,Y,Z Vertex 1 {m}
  1.77635683940025e-014, -8.88178419700125e-015, 0, !- X,Y,Z Vertex 2 {m}
  4.57200000000002, -4.572, 0,            !- X,Y,Z Vertex 3 {m}
  4.57200000000002, -4.572, 3.048;        !- X,Y,Z Vertex 4 {m}

OS:Surface,
  {b1e097ee-bf24-47d1-892d-7554fec2fdcc}, !- Handle
  Surface 12,                             !- Name
  RoofCeiling,                            !- Surface Type
  ,                                       !- Construction Name
  {609b31a9-c030-432c-9318-726c0855a2e5}, !- Space Name
  Adiabatic,                              !- Outside Boundary Condition
  ,                                       !- Outside Boundary Condition Object
  NoSun,                                  !- Sun Exposure
  NoWind,                                 !- Wind Exposure
  ,                                       !- View Factor to Ground
  ,                                       !- Number of Vertices
  4.57200000000002, -4.572, 3.048,        !- X,Y,Z Vertex 1 {m}
  31.0209717270648, -4.572, 3.048,        !- X,Y,Z Vertex 2 {m}
  35.5929717270648, -8.88178419700125e-015, 3.048, !- X,Y,Z Vertex 3 {m}
  1.77635683940025e-014, -8.88178419700125e-015, 3.048; !- X,Y,Z Vertex 4 {m}

OS:ThermalZone,
  {8cb77fa5-cefb-4626-aa36-d44e6aef1748}, !- Handle
  Zone North Perimeter Space - Story Ground, !- Name
  1,                                      !- Multiplier
  ,                                       !- Ceiling Height {m}
  ,                                       !- Volume {m3}
  ,                                       !- Floor Area {m2}
  ,                                       !- Zone Inside Convection Algorithm
  ,                                       !- Zone Outside Convection Algorithm
  ,                                       !- Zone Conditioning Equipment List Name
  {3e7e8f89-9f90-40b3-a773-df62d177128c}, !- Zone Air Inlet Port List
  {c72e01e8-7f6d-4e86-8441-62a9a999c6a4}, !- Zone Air Exhaust Port List
  {f1025df2-c36b-4dc9-8ecf-ca3918e8ac2e}, !- Zone Air Node Name
  {a30fed6f-dbce-4317-bed7-55b1b372bb45}, !- Zone Return Air Port List
  ,                                       !- Primary Daylighting Control Name
  ,                                       !- Fraction of Zone Controlled by Primary Daylighting Control
  ,                                       !- Secondary Daylighting Control Name
  ,                                       !- Fraction of Zone Controlled by Secondary Daylighting Control
  ,                                       !- Illuminance Map Name
  ,                                       !- Group Rendering Name
  ,                                       !- Thermostat Name
  No;                                     !- Use Ideal Air Loads

OS:Node,
  {962bdc09-566a-4408-a1b0-8bb83debcf19}, !- Handle
  Node 2,                                 !- Name
  {f1025df2-c36b-4dc9-8ecf-ca3918e8ac2e}, !- Inlet Port
  ;                                       !- Outlet Port

OS:Connection,
  {f1025df2-c36b-4dc9-8ecf-ca3918e8ac2e}, !- Handle
  {9bc7e7c0-fa96-4546-b66f-9137f3ca4000}, !- Name
  {8cb77fa5-cefb-4626-aa36-d44e6aef1748}, !- Source Object
  11,                                     !- Outlet Port
  {962bdc09-566a-4408-a1b0-8bb83debcf19}, !- Target Object
  2;                                      !- Inlet Port

OS:PortList,
  {3e7e8f89-9f90-40b3-a773-df62d177128c}, !- Handle
  {d9db5b92-6284-4057-8f3a-40b3a74cc714}, !- Name
  {8cb77fa5-cefb-4626-aa36-d44e6aef1748}; !- HVAC Component

OS:PortList,
  {c72e01e8-7f6d-4e86-8441-62a9a999c6a4}, !- Handle
  {b5f06369-345d-46b6-a868-3f566d714060}, !- Name
  {8cb77fa5-cefb-4626-aa36-d44e6aef1748}; !- HVAC Component

OS:PortList,
  {a30fed6f-dbce-4317-bed7-55b1b372bb45}, !- Handle
  {4cc786a9-c44e-4091-b61b-960c12682924}, !- Name
  {8cb77fa5-cefb-4626-aa36-d44e6aef1748}; !- HVAC Component

OS:Sizing:Zone,
  {95e10424-69df-4b50-ac24-19cbe8daa944}, !- Handle
  {8cb77fa5-cefb-4626-aa36-d44e6aef1748}, !- Zone or ZoneList Name
  SupplyAirTemperature,                   !- Zone Cooling Design Supply Air Temperature Input Method
  14,                                     !- Zone Cooling Design Supply Air Temperature {C}
  11.11,                                  !- Zone Cooling Design Supply Air Temperature Difference {deltaC}
  SupplyAirTemperature,                   !- Zone Heating Design Supply Air Temperature Input Method
  40,                                     !- Zone Heating Design Supply Air Temperature {C}
  11.11,                                  !- Zone Heating Design Supply Air Temperature Difference {deltaC}
  0.0085,                                 !- Zone Cooling Design Supply Air Humidity Ratio {kg-H2O/kg-air}
  0.008,                                  !- Zone Heating Design Supply Air Humidity Ratio {kg-H2O/kg-air}
  ,                                       !- Zone Heating Sizing Factor
  ,                                       !- Zone Cooling Sizing Factor
  DesignDay,                              !- Cooling Design Air Flow Method
  ,                                       !- Cooling Design Air Flow Rate {m3/s}
  ,                                       !- Cooling Minimum Air Flow per Zone Floor Area {m3/s-m2}
  ,                                       !- Cooling Minimum Air Flow {m3/s}
  ,                                       !- Cooling Minimum Air Flow Fraction
  DesignDay,                              !- Heating Design Air Flow Method
  ,                                       !- Heating Design Air Flow Rate {m3/s}
  ,                                       !- Heating Maximum Air Flow per Zone Floor Area {m3/s-m2}
  ,                                       !- Heating Maximum Air Flow {m3/s}
  ,                                       !- Heating Maximum Air Flow Fraction
  ,                                       !- Design Zone Air Distribution Effectiveness in Cooling Mode
  ,                                       !- Design Zone Air Distribution Effectiveness in Heating Mode
  No,                                     !- Account for Dedicated Outdoor Air System
  NeutralSupplyAir,                       !- Dedicated Outdoor Air System Control Strategy
  autosize,                               !- Dedicated Outdoor Air Low Setpoint Temperature for Design {C}
  autosize;                               !- Dedicated Outdoor Air High Setpoint Temperature for Design {C}

OS:ZoneHVAC:EquipmentList,
  {3a647d7f-5a9d-470b-b751-e7f9fccb4cfe}, !- Handle
  Zone HVAC Equipment List 2,             !- Name
  {8cb77fa5-cefb-4626-aa36-d44e6aef1748}; !- Thermal Zone

OS:Space,
  {1c8d7687-2696-4e2a-878a-6176eb90fc00}, !- Handle
  East Perimeter Space - Story Ground,    !- Name
  ,                                       !- Space Type Name
  ,                                       !- Default Construction Set Name
  ,                                       !- Default Schedule Set Name
  -0,                                     !- Direction of Relative North {deg}
  17.7964858635324,                       !- X Origin {m}
  11.8643239090216,                       !- Y Origin {m}
  0,                                      !- Z Origin {m}
  {d3f2d2ac-59b8-421d-9813-14361654591d}, !- Building Story Name
  {7ecf20d0-1208-4b68-922b-410ba0b1bd4a}; !- Thermal Zone Name

OS:Surface,
  {0f69c2f8-1ca4-4699-af2d-7493dcce022c}, !- Handle
  Surface 13,                             !- Name
  Floor,                                  !- Surface Type
  ,                                       !- Construction Name
  {1c8d7687-2696-4e2a-878a-6176eb90fc00}, !- Space Name
  Ground,                                 !- Outside Boundary Condition
  ,                                       !- Outside Boundary Condition Object
  NoSun,                                  !- Sun Exposure
  NoWind,                                 !- Wind Exposure
  ,                                       !- View Factor to Ground
  ,                                       !- Number of Vertices
  -1.77635683940025e-014, -8.88178419700125e-015, 0, !- X,Y,Z Vertex 1 {m}
  -1.77635683940025e-014, -23.7286478180432, 0, !- X,Y,Z Vertex 2 {m}
  -4.57200000000002, -19.1566478180432, 0, !- X,Y,Z Vertex 3 {m}
  -4.57200000000002, -4.572, 0;           !- X,Y,Z Vertex 4 {m}

OS:Surface,
  {dd4c6649-9e31-471b-87bc-0254a8a545fb}, !- Handle
  Surface 14,                             !- Name
  Wall,                                   !- Surface Type
  ,                                       !- Construction Name
  {1c8d7687-2696-4e2a-878a-6176eb90fc00}, !- Space Name
  Outdoors,                               !- Outside Boundary Condition
  ,                                       !- Outside Boundary Condition Object
  SunExposed,                             !- Sun Exposure
  WindExposed,                            !- Wind Exposure
  ,                                       !- View Factor to Ground
  ,                                       !- Number of Vertices
  -1.77635683940025e-014, -23.7286478180432, 3.048, !- X,Y,Z Vertex 1 {m}
  -1.77635683940025e-014, -23.7286478180432, 0, !- X,Y,Z Vertex 2 {m}
  -1.77635683940025e-014, -8.88178419700125e-015, 0, !- X,Y,Z Vertex 3 {m}
  -1.77635683940025e-014, -8.88178419700125e-015, 3.048; !- X,Y,Z Vertex 4 {m}

OS:Surface,
  {564b9f7d-ef4f-420b-b244-8d93c01122b1}, !- Handle
  Surface 15,                             !- Name
  Wall,                                   !- Surface Type
  ,                                       !- Construction Name
  {1c8d7687-2696-4e2a-878a-6176eb90fc00}, !- Space Name
  Surface,                                !- Outside Boundary Condition
  {610df251-2145-40ae-a314-d12aceab2fb1}, !- Outside Boundary Condition Object
  NoSun,                                  !- Sun Exposure
  NoWind,                                 !- Wind Exposure
  ,                                       !- View Factor to Ground
  ,                                       !- Number of Vertices
  -4.57200000000002, -19.1566478180432, 3.048, !- X,Y,Z Vertex 1 {m}
  -4.57200000000002, -19.1566478180432, 0, !- X,Y,Z Vertex 2 {m}
  -1.77635683940025e-014, -23.7286478180432, 0, !- X,Y,Z Vertex 3 {m}
  -1.77635683940025e-014, -23.7286478180432, 3.048; !- X,Y,Z Vertex 4 {m}

OS:Surface,
  {c3cf2bf0-0eba-4b83-8d7d-f7860c6dcde2}, !- Handle
  Surface 16,                             !- Name
  Wall,                                   !- Surface Type
  ,                                       !- Construction Name