
OS:Version,
  {e49c25b7-93fb-40c7-8683-96e9bd192146}, !- Handle
  2.7.2;                                  !- Version Identifier

OS:SpaceType,
  {4cbe9038-3444-4ab1-ad40-d3721505b4fe}, !- Handle
  Office WholeBuilding - Sm Office,       !- Name
  ,                                       !- Default Construction Set Name
  ,                                       !- Default Schedule Set Name
  {8240bad5-efb8-4109-9745-dea74c81a349}, !- Group Rendering Name
  ,                                       !- Design Specification Outdoor Air Object Name
  ,                                       !- Standards Template
  Office,                                 !- Standards Building Type
  WholeBuilding - Sm Office;              !- Standards Space Type

OS:Rendering:Color,
  {8240bad5-efb8-4109-9745-dea74c81a349}, !- Handle
  Office WholeBuilding - Sm Office,       !- Name
  120,                                    !- Rendering Red Value
  230,                                    !- Rendering Green Value
  199;                                    !- Rendering Blue Value

OS:Building,
  {a051da1e-9209-47ef-ab5e-5f47b68ee39e}, !- Handle
  90.1-2004|SmallOffice,                  !- Name
  ,                                       !- Building Sector Type
  ,                                       !- North Axis {deg}
  ,                                       !- Nominal Floor to Floor Height {m}
  {4cbe9038-3444-4ab1-ad40-d3721505b4fe}, !- Space Type Name
  ,                                       !- Default Construction Set Name
  ;                                       !- Default Schedule Set Name

OS:Site,
  {8aab68ea-9534-4329-b1d7-cb730894c6f7}, !- Handle
  Site 1,                                 !- Name
  ,                                       !- Latitude {deg}
  ,                                       !- Longitude {deg}
  ,                                       !- Time Zone {hr}
  ,                                       !- Elevation {m}
  ;                                       !- Terrain

OS:BuildingStory,
  {bc466fe0-68f8-4553-a241-4c4276e1ace2}, !- Handle
  Story Ground,                           !- Name
  0,                                      !- Nominal Z Coordinate {m}
  3.048,                                  !- Nominal Floor to Floor Height {m}
  ,                                       !- Default Construction Set Name
  ,                                       !- Default Schedule Set Name
  ;                                       !- Group Rendering Name

OS:Space,
  {5fb9ed61-8ed0-45a9-9458-c0396323f0b6}, !- Handle
  West Perimeter Space - Story Ground,    !- Name
  ,                                       !- Space Type Name
  ,                                       !- Default Construction Set Name
  ,                                       !- Default Schedule Set Name
  -0,                                     !- Direction of Relative North {deg}
  -17.7964858635324,                      !- X Origin {m}
  -11.8643239090216,                      !- Y Origin {m}
  0,                                      !- Z Origin {m}
  {bc466fe0-68f8-4553-a241-4c4276e1ace2}, !- Building Story Name
  {e0918e3e-9d86-456c-87dc-b6f560c16df4}; !- Thermal Zone Name

OS:Surface,
  {3fd53436-eff1-4d39-930f-df478bba57a5}, !- Handle
  Surface 1,                              !- Name
  Floor,                                  !- Surface Type
  ,                                       !- Construction Name
  {5fb9ed61-8ed0-45a9-9458-c0396323f0b6}, !- Space Name
  Ground,                                 !- Outside Boundary Condition
  ,                                       !- Outside Boundary Condition Object
  NoSun,                                  !- Sun Exposure
  NoWind,                                 !- Wind Exposure
  ,                                       !- View Factor to Ground
  ,                                       !- Number of Vertices
  1.77635683940025e-014, 8.88178419700125e-015, 0, !- X,Y,Z Vertex 1 {m}
  1.77635683940025e-014, 23.7286478180432, 0, !- X,Y,Z Vertex 2 {m}
  4.57200000000002, 19.1566478180432, 0,  !- X,Y,Z Vertex 3 {m}
  4.57200000000002, 4.572, 0;             !- X,Y,Z Vertex 4 {m}

OS:Surface,
  {fd8061f9-6bc7-4185-9a95-a8a72c495dee}, !- Handle
  Surface 2,                              !- Name
  Wall,                                   !- Surface Type
  ,                                       !- Construction Name
  {5fb9ed61-8ed0-45a9-9458-c0396323f0b6}, !- Space Name
  Outdoors,                               !- Outside Boundary Condition
  ,                                       !- Outside Boundary Condition Object
  SunExposed,                             !- Sun Exposure
  WindExposed,                            !- Wind Exposure
  ,                                       !- View Factor to Ground
  ,                                       !- Number of Vertices
  1.77635683940025e-014, 23.7286478180432, 3.048, !- X,Y,Z Vertex 1 {m}
  1.77635683940025e-014, 23.7286478180432, 0, !- X,Y,Z Vertex 2 {m}
  1.77635683940025e-014, 8.88178419700125e-015, 0, !- X,Y,Z Vertex 3 {m}
  1.77635683940025e-014, 8.88178419700125e-015, 3.048; !- X,Y,Z Vertex 4 {m}

OS:Surface,
  {08b544a0-1bfc-456d-ae83-ac35733ab2ea}, !- Handle
  Surface 3,                              !- Name
  Wall,                                   !- Surface Type
  ,                                       !- Construction Name
  {5fb9ed61-8ed0-45a9-9458-c0396323f0b6}, !- Space Name
  Surface,                                !- Outside Boundary Condition
  {10b5e8a5-fcea-4d15-a03b-d0c4ed69757f}, !- Outside Boundary Condition Object
  NoSun,                                  !- Sun Exposure
  NoWind,                                 !- Wind Exposure
  ,                                       !- View Factor to Ground
  ,                                       !- Number of Vertices
  4.57200000000002, 19.1566478180432, 3.048, !- X,Y,Z Vertex 1 {m}
  4.57200000000002, 19.1566478180432, 0,  !- X,Y,Z Vertex 2 {m}
  1.77635683940025e-014, 23.7286478180432, 0, !- X,Y,Z Vertex 3 {m}
  1.77635683940025e-014, 23.7286478180432, 3.048; !- X,Y,Z Vertex 4 {m}

OS:Surface,
  {d1118019-4e57-41cb-8453-c10784ba6a36}, !- Handle
  Surface 4,                              !- Name
  Wall,                                   !- Surface Type
  ,                                       !- Construction Name
  {5fb9ed61-8ed0-45a9-9458-c0396323f0b6}, !- Space Name
  Surface,                                !- Outside Boundary Condition
  {7dc0dd37-ae76-41d1-903c-1d0577b8aced}, !- Outside Boundary Condition Object
  NoSun,                                  !- Sun Exposure
  NoWind,                                 !- Wind Exposure
  ,                                       !- View Factor to Ground
  ,                                       !- Number of Vertices
  4.57200000000002, 4.572, 3.048,         !- X,Y,Z Vertex 1 {m}
  4.57200000000002, 4.572, 0,             !- X,Y,Z Vertex 2 {m}
  4.57200000000002, 19.1566478180432, 0,  !- X,Y,Z Vertex 3 {m}
  4.57200000000002, 19.1566478180432, 3.048; !- X,Y,Z Vertex 4 {m}

OS:Surface,
  {6a08d93a-d709-4205-98ba-cda671016549}, !- Handle
  Surface 5,                              !- Name
  Wall,                                   !- Surface Type
  ,                                       !- Construction Name
  {5fb9ed61-8ed0-45a9-9458-c0396323f0b6}, !- Space Name
  Surface,                                !- Outside Boundary Condition
  {11cd3fd0-d275-49c4-9b33-b35fb093a659}, !- Outside Boundary Condition Object
  NoSun,                                  !- Sun Exposure
  NoWind,                                 !- Wind Exposure
  ,                                       !- View Factor to Ground
  ,                                       !- Number of Vertices
  1.77635683940025e-014, 8.88178419700125e-015, 3.048, !- X,Y,Z Vertex 1 {m}
  1.77635683940025e-014, 8.88178419700125e-015, 0, !- X,Y,Z Vertex 2 {m}
  4.57200000000002, 4.572, 0,             !- X,Y,Z Vertex 3 {m}
  4.57200000000002, 4.572, 3.048;         !- X,Y,Z Vertex 4 {m}

OS:Surface,
  {2568bc4b-8534-403b-b96d-d62527e9184e}, !- Handle
  Surface 6,                              !- Name
  RoofCeiling,                            !- Surface Type
  ,                                       !- Construction Name
  {5fb9ed61-8ed0-45a9-9458-c0396323f0b6}, !- Space Name
  Adiabatic,                              !- Outside Boundary Condition
  ,                                       !- Outside Boundary Condition Object
  NoSun,                                  !- Sun Exposure
  NoWind,                                 !- Wind Exposure
  ,                                       !- View Factor to Ground
  ,                                       !- Number of Vertices
  4.57200000000002, 4.572, 3.048,         !- X,Y,Z Vertex 1 {m}
  4.57200000000002, 19.1566478180432, 3.048, !- X,Y,Z Vertex 2 {m}
  1.77635683940025e-014, 23.7286478180432, 3.048, !- X,Y,Z Vertex 3 {m}
  1.77635683940025e-014, 8.88178419700125e-015, 3.048; !- X,Y,Z Vertex 4 {m}

OS:ThermalZone,
  {e0918e3e-9d86-456c-87dc-b6f560c16df4}, !- Handle
  Zone West Perimeter Space - Story Ground, !- Name
  1,                                      !- Multiplier
  ,                                       !- Ceiling Height {m}
  ,                                       !- Volume {m3}
  ,                                       !- Floor Area {m2}
  ,                                       !- Zone Inside Convection Algorithm
  ,                                       !- Zone Outside Convection Algorithm
  ,                                       !- Zone Conditioning Equipment List Name
  {2ec3c06a-9244-464f-9a9a-de140c04f63f}, !- Zone Air Inlet Port List
  {6ddbc27e-b5f1-4829-8124-c43594a4cf39}, !- Zone Air Exhaust Port List
  {a3303676-93e9-466e-8d7a-d3039070bbf2}, !- Zone Air Node Name
  {e6f06b01-7f92-4fc7-8f76-324f9fb1cd47}, !- Zone Return Air Port List
  ,                                       !- Primary Daylighting Control Name
  ,                                       !- Fraction of Zone Controlled by Primary Daylighting Control
  ,                                       !- Secondary Daylighting Control Name
  ,                                       !- Fraction of Zone Controlled by Secondary Daylighting Control
  ,                                       !- Illuminance Map Name
  ,                                       !- Group Rendering Name
  ,                                       !- Thermostat Name
  No;                                     !- Use Ideal Air Loads

OS:Node,
  {78aa32f4-300a-4997-aa0b-ac4db3715609}, !- Handle
  Node 1,                                 !- Name
  {a3303676-93e9-466e-8d7a-d3039070bbf2}, !- Inlet Port
  ;                                       !- Outlet Port

OS:Connection,
  {a3303676-93e9-466e-8d7a-d3039070bbf2}, !- Handle
  {cc331ed6-6843-4a4b-94dd-f33ac6936d8b}, !- Name
  {e0918e3e-9d86-456c-87dc-b6f560c16df4}, !- Source Object
  11,                                     !- Outlet Port
  {78aa32f4-300a-4997-aa0b-ac4db3715609}, !- Target Object
  2;                                      !- Inlet Port

OS:PortList,
  {2ec3c06a-9244-464f-9a9a-de140c04f63f}, !- Handle
  {6488dadc-6f99-418e-bda1-22879620005e}, !- Name
  {e0918e3e-9d86-456c-87dc-b6f560c16df4}; !- HVAC Component

OS:PortList,
  {6ddbc27e-b5f1-4829-8124-c43594a4cf39}, !- Handle
  {13d65b25-df04-4588-be63-ac1b66c0e457}, !- Name
  {e0918e3e-9d86-456c-87dc-b6f560c16df4}; !- HVAC Component

OS:PortList,
  {e6f06b01-7f92-4fc7-8f76-324f9fb1cd47}, !- Handle
  {33f5c1b6-954b-4ce3-b9f6-1298c6084c9e}, !- Name
  {e0918e3e-9d86-456c-87dc-b6f560c16df4}; !- HVAC Component

OS:Sizing:Zone,
  {4ee467ab-a20a-4552-b4f6-fa2b9a4612b6}, !- Handle
  {e0918e3e-9d86-456c-87dc-b6f560c16df4}, !- Zone or ZoneList Name
  SupplyAirTemperature,                   !- Zone Cooling Design Supply Air Temperature Input Method
  14,                                     !- Zone Cooling Design Supply Air Temperature {C}
  11.11,                                  !- Zone Cooling Design Supply Air Temperature Difference {deltaC}
  SupplyAirTemperature,                   !- Zone Heating Design Supply Air Temperature Input Method
  40,                                     !- Zone Heating Design Supply Air Temperature {C}
  11.11,                                  !- Zone Heating Design Supply Air Temperature Difference {deltaC}
  0.0085,                                 !- Zone Cooling Design Supply Air Humidity Ratio {kg-H2O/kg-air}
  0.008,                                  !- Zone Heating Design Supply Air Humidity Ratio {kg-H2O/kg-air}
  ,                                       !- Zone Heating Sizing Factor
  ,                                       !- Zone Cooling Sizing Factor
  DesignDay,                              !- Cooling Design Air Flow Method
  ,                                       !- Cooling Design Air Flow Rate {m3/s}
  ,                                       !- Cooling Minimum Air Flow per Zone Floor Area {m3/s-m2}
  ,                                       !- Cooling Minimum Air Flow {m3/s}
  ,                                       !- Cooling Minimum Air Flow Fraction
  DesignDay,                              !- Heating Design Air Flow Method
  ,                                       !- Heating Design Air Flow Rate {m3/s}
  ,                                       !- Heating Maximum Air Flow per Zone Floor Area {m3/s-m2}
  ,                                       !- Heating Maximum Air Flow {m3/s}
  ,                                       !- Heating Maximum Air Flow Fraction
  ,                                       !- Design Zone Air Distribution Effectiveness in Cooling Mode
  ,                                       !- Design Zone Air Distribution Effectiveness in Heating Mode
  No,                                     !- Account for Dedicated Outdoor Air System
  NeutralSupplyAir,                       !- Dedicated Outdoor Air System Control Strategy
  autosize,                               !- Dedicated Outdoor Air Low Setpoint Temperature for Design {C}
  autosize;                               !- Dedicated Outdoor Air High Setpoint Temperature for Design {C}

OS:ZoneHVAC:EquipmentList,
  {39047437-816c-42d5-be15-1b06fdda4fea}, !- Handle
  Zone HVAC Equipment List 1,             !- Name
  {e0918e3e-9d86-456c-87dc-b6f560c16df4}; !- Thermal Zone

OS:Space,
  {9061e9a7-f1a0-4501-9454-8fcfc65d68a5}, !- Handle
  North Perimeter Space - Story Ground,   !- Name
  ,                                       !- Space Type Name
  ,                                       !- Default Construction Set Name
  ,                                       !- Default Schedule Set Name
  -0,                                     !- Direction of Relative North {deg}
  -17.7964858635324,                      !- X Origin {m}
  11.8643239090216,                       !- Y Origin {m}
  0,                                      !- Z Origin {m}
  {bc466fe0-68f8-4553-a241-4c4276e1ace2}, !- Building Story Name
  {08f613ca-2f89-49ee-9dd1-795cd06bbfac}; !- Thermal Zone Name

OS:Surface,
  {5b4a7982-ee3a-4d60-a84a-eee15bdb5d41}, !- Handle
  Surface 7,                              !- Name
  Floor,                                  !- Surface Type
  ,                                       !- Construction Name
  {9061e9a7-f1a0-4501-9454-8fcfc65d68a5}, !- Space Name
  Ground,                                 !- Outside Boundary Condition
  ,                                       !- Outside Boundary Condition Object
  NoSun,                                  !- Sun Exposure
  NoWind,                                 !- Wind Exposure
  ,                                       !- View Factor to Ground
  ,                                       !- Number of Vertices
  1.77635683940025e-014, -8.88178419700125e-015, 0, !- X,Y,Z Vertex 1 {m}
  35.5929717270648, -8.88178419700125e-015, 0, !- X,Y,Z Vertex 2 {m}
  31.0209717270648, -4.572, 0,            !- X,Y,Z Vertex 3 {m}
  4.57200000000002, -4.572, 0;            !- X,Y,Z Vertex 4 {m}

OS:Surface,
  {972a5d04-aaa4-45dd-b16d-2a4a5ca193dd}, !- Handle
  Surface 8,                              !- Name
  Wall,                                   !- Surface Type
  ,                                       !- Construction Name
  {9061e9a7-f1a0-4501-9454-8fcfc65d68a5}, !- Space Name
  Outdoors,                               !- Outside Boundary Condition
  ,                                       !- Outside Boundary Condition Object
  SunExposed,                             !- Sun Exposure
  WindExposed,                            !- Wind Exposure
  ,                                       !- View Factor to Ground
  ,                                       !- Number of Vertices
  35.5929717270648, -8.88178419700125e-015, 3.048, !- X,Y,Z Vertex 1 {m}
  35.5929717270648, -8.88178419700125e-015, 0, !- X,Y,Z Vertex 2 {m}
  1.77635683940025e-014, -8.88178419700125e-015, 0, !- X,Y,Z Vertex 3 {m}
  1.77635683940025e-014, -8.88178419700125e-015, 3.048; !- X,Y,Z Vertex 4 {m}

OS:Surface,
  {bdbf3c61-75dd-42a6-9960-90924b66a1ed}, !- Handle
  Surface 9,                              !- Name
  Wall,                                   !- Surface Type
  ,                                       !- Construction Name
  {9061e9a7-f1a0-4501-9454-8fcfc65d68a5}, !- Space Name
  Surface,                                !- Outside Boundary Condition
  {b5068172-7d8f-4080-8e13-6432f5c6d82a}, !- Outside Boundary Condition Object
  NoSun,                                  !- Sun Exposure
  NoWind,                                 !- Wind Exposure
  ,                                       !- View Factor to Ground
  ,                                       !- Number of Vertices
  31.0209717270648, -4.572, 3.048,        !- X,Y,Z Vertex 1 {m}
  31.0209717270648, -4.572, 0,            !- X,Y,Z Vertex 2 {m}
  35.5929717270648, -8.88178419700125e-015, 0, !- X,Y,Z Vertex 3 {m}
  35.5929717270648, -8.88178419700125e-015, 3.048; !- X,Y,Z Vertex 4 {m}

OS:Surface,
  {370d9324-e7dc-47c0-9e89-cd2c294d5231}, !- Handle
  Surface 10,                             !- Name
  Wall,                                   !- Surface Type
  ,                                       !- Construction Name
  {9061e9a7-f1a0-4501-9454-8fcfc65d68a5}, !- Space Name
  Surface,                                !- Outside Boundary Condition
  {4c9df765-400f-4b06-933b-ad22cd6ebcc3}, !- Outside Boundary Condition Object
  NoSun,                                  !- Sun Exposure
  NoWind,                                 !- Wind Exposure
  ,                                       !- View Factor to Ground
  ,                                       !- Number of Vertices
  4.57200000000002, -4.572, 3.048,        !- X,Y,Z Vertex 1 {m}
  4.57200000000002, -4.572, 0,            !- X,Y,Z Vertex 2 {m}
  31.0209717270648, -4.572, 0,            !- X,Y,Z Vertex 3 {m}
  31.0209717270648, -4.572, 3.048;        !- X,Y,Z Vertex 4 {m}

OS:Surface,
  {10b5e8a5-fcea-4d15-a03b-d0c4ed69757f}, !- Handle
  Surface 11,                             !- Name
  Wall,                                   !- Surface Type
  ,                                       !- Construction Name
  {9061e9a7-f1a0-4501-9454-8fcfc65d68a5}, !- Space Name
  Surface,                                !- Outside Boundary Condition
  {08b544a0-1bfc-456d-ae83-ac35733ab2ea}, !- Outside Boundary Condition Object
  NoSun,                                  !- Sun Exposure
  NoWind,                                 !- Wind Exposure
  ,                                       !- View Factor to Ground
  ,                                       !- Number of Vertices
  1.77635683940025e-014, -8.88178419700125e-015, 3.048, !- X,Y,Z Vertex 1 {m}
  1.77635683940025e-014, -8.88178419700125e-015, 0, !- X,Y,Z Vertex 2 {m}
  4.57200000000002, -4.572, 0,            !- X,Y,Z Vertex 3 {m}
  4.57200000000002, -4.572, 3.048;        !- X,Y,Z Vertex 4 {m}

OS:Surface,
  {c022097a-d91e-4b7e-b320-75d12694aba4}, !- Handle
  Surface 12,                             !- Name
  RoofCeiling,                            !- Surface Type
  ,                                       !- Construction Name
  {9061e9a7-f1a0-4501-9454-8fcfc65d68a5}, !- Space Name
  Adiabatic,                              !- Outside Boundary Condition
  ,                                       !- Outside Boundary Condition Object
  NoSun,                                  !- Sun Exposure
  NoWind,                                 !- Wind Exposure
  ,                                       !- View Factor to Ground
  ,                                       !- Number of Vertices
  4.57200000000002, -4.572, 3.048,        !- X,Y,Z Vertex 1 {m}
  31.0209717270648, -4.572, 3.048,        !- X,Y,Z Vertex 2 {m}
  35.5929717270648, -8.88178419700125e-015, 3.048, !- X,Y,Z Vertex 3 {m}
  1.77635683940025e-014, -8.88178419700125e-015, 3.048; !- X,Y,Z Vertex 4 {m}

OS:ThermalZone,
  {08f613ca-2f89-49ee-9dd1-795cd06bbfac}, !- Handle
  Zone North Perimeter Space - Story Ground, !- Name
  1,                                      !- Multiplier
  ,                                       !- Ceiling Height {m}
  ,                                       !- Volume {m3}
  ,                                       !- Floor Area {m2}
  ,                                       !- Zone Inside Convection Algorithm
  ,                                       !- Zone Outside Convection Algorithm
  ,                                       !- Zone Conditioning Equipment List Name
  {8e3bbf66-38dc-4d09-961a-39d68c41351f}, !- Zone Air Inlet Port List
  {630cbd9d-7190-4af5-8d48-688c6148b74a}, !- Zone Air Exhaust Port List
  {506b2ba0-883a-41ff-a2ee-5729adfb93f2}, !- Zone Air Node Name
  {b6e049b4-125f-4ab5-8439-06bdce62c046}, !- Zone Return Air Port List
  ,                                       !- Primary Daylighting Control Name
  ,                                       !- Fraction of Zone Controlled by Primary Daylighting Control
  ,                                       !- Secondary Daylighting Control Name
  ,                                       !- Fraction of Zone Controlled by Secondary Daylighting Control
  ,                                       !- Illuminance Map Name
  ,                                       !- Group Rendering Name
  ,                                       !- Thermostat Name
  No;                                     !- Use Ideal Air Loads

OS:Node,
  {408257df-b354-4aea-96e4-6d13c0ece93c}, !- Handle
  Node 2,                                 !- Name
  {506b2ba0-883a-41ff-a2ee-5729adfb93f2}, !- Inlet Port
  ;                                       !- Outlet Port

OS:Connection,
  {506b2ba0-883a-41ff-a2ee-5729adfb93f2}, !- Handle
  {eeb1a9b1-4bc0-4c55-87ee-7c01e2f0e1ab}, !- Name
  {08f613ca-2f89-49ee-9dd1-795cd06bbfac}, !- Source Object
  11,                                     !- Outlet Port
  {408257df-b354-4aea-96e4-6d13c0ece93c}, !- Target Object
  2;                                      !- Inlet Port

OS:PortList,
  {8e3bbf66-38dc-4d09-961a-39d68c41351f}, !- Handle
  {cb5c29f5-eaa4-458a-afbe-f81e07aed889}, !- Name
  {08f613ca-2f89-49ee-9dd1-795cd06bbfac}; !- HVAC Component

OS:PortList,
  {630cbd9d-7190-4af5-8d48-688c6148b74a}, !- Handle
  {09161d71-7f82-4d3a-9f4a-91e33661193c}, !- Name
  {08f613ca-2f89-49ee-9dd1-795cd06bbfac}; !- HVAC Component

OS:PortList,
  {b6e049b4-125f-4ab5-8439-06bdce62c046}, !- Handle
  {c663a7d5-a972-472e-9d29-126c6d03174b}, !- Name
  {08f613ca-2f89-49ee-9dd1-795cd06bbfac}; !- HVAC Component

OS:Sizing:Zone,
  {6ee161cd-c3ff-4bf7-87db-7435c6510fd5}, !- Handle
  {08f613ca-2f89-49ee-9dd1-795cd06bbfac}, !- Zone or ZoneList Name
  SupplyAirTemperature,                   !- Zone Cooling Design Supply Air Temperature Input Method
  14,                                     !- Zone Cooling Design Supply Air Temperature {C}
  11.11,                                  !- Zone Cooling Design Supply Air Temperature Difference {deltaC}
  SupplyAirTemperature,                   !- Zone Heating Design Supply Air Temperature Input Method
  40,                                     !- Zone Heating Design Supply Air Temperature {C}
  11.11,                                  !- Zone Heating Design Supply Air Temperature Difference {deltaC}
  0.0085,                                 !- Zone Cooling Design Supply Air Humidity Ratio {kg-H2O/kg-air}
  0.008,                                  !- Zone Heating Design Supply Air Humidity Ratio {kg-H2O/kg-air}
  ,                                       !- Zone Heating Sizing Factor
  ,                                       !- Zone Cooling Sizing Factor
  DesignDay,                              !- Cooling Design Air Flow Method
  ,                                       !- Cooling Design Air Flow Rate {m3/s}
  ,                                       !- Cooling Minimum Air Flow per Zone Floor Area {m3/s-m2}
  ,                                       !- Cooling Minimum Air Flow {m3/s}
  ,                                       !- Cooling Minimum Air Flow Fraction
  DesignDay,                              !- Heating Design Air Flow Method
  ,                                       !- Heating Design Air Flow Rate {m3/s}
  ,                                       !- Heating Maximum Air Flow per Zone Floor Area {m3/s-m2}
  ,                                       !- Heating Maximum Air Flow {m3/s}
  ,                                       !- Heating Maximum Air Flow Fraction
  ,                                       !- Design Zone Air Distribution Effectiveness in Cooling Mode
  ,                                       !- Design Zone Air Distribution Effectiveness in Heating Mode
  No,                                     !- Account for Dedicated Outdoor Air System
  NeutralSupplyAir,                       !- Dedicated Outdoor Air System Control Strategy
  autosize,                               !- Dedicated Outdoor Air Low Setpoint Temperature for Design {C}
  autosize;                               !- Dedicated Outdoor Air High Setpoint Temperature for Design {C}

OS:ZoneHVAC:EquipmentList,
  {656c73eb-5656-407d-a9c5-c8a23a4991be}, !- Handle
  Zone HVAC Equipment List 2,             !- Name
  {08f613ca-2f89-49ee-9dd1-795cd06bbfac}; !- Thermal Zone

OS:Space,
  {c29a3d64-2edd-40ce-b14e-f23fcf0a3ee1}, !- Handle
  East Perimeter Space - Story Ground,    !- Name
  ,                                       !- Space Type Name
  ,                                       !- Default Construction Set Name
  ,                                       !- Default Schedule Set Name
  -0,                                     !- Direction of Relative North {deg}
  17.7964858635324,                       !- X Origin {m}
  11.8643239090216,                       !- Y Origin {m}
  0,                                      !- Z Origin {m}
  {bc466fe0-68f8-4553-a241-4c4276e1ace2}, !- Building Story Name
  {f0b1541a-8ccf-45b5-bf38-a23afcbbfa5f}; !- Thermal Zone Name

OS:Surface,
  {c6f4d22e-b34d-4ad2-a915-7f9ef518a7e8}, !- Handle
  Surface 13,                             !- Name
  Floor,                                  !- Surface Type
  ,                                       !- Construction Name
  {c29a3d64-2edd-40ce-b14e-f23fcf0a3ee1}, !- Space Name
  Ground,                                 !- Outside Boundary Condition
  ,                                       !- Outside Boundary Condition Object
  NoSun,                                  !- Sun Exposure
  NoWind,                                 !- Wind Exposure
  ,                                       !- View Factor to Ground
  ,                                       !- Number of Vertices
  -1.77635683940025e-014, -8.88178419700125e-015, 0, !- X,Y,Z Vertex 1 {m}
  -1.77635683940025e-014, -23.7286478180432, 0, !- X,Y,Z Vertex 2 {m}
  -4.57200000000002, -19.1566478180432, 0, !- X,Y,Z Vertex 3 {m}
  -4.57200000000002, -4.572, 0;           !- X,Y,Z Vertex 4 {m}

OS:Surface,
  {3b17ad7a-ca12-4eed-9d80-4a675a8274e9}, !- Handle
  Surface 14,                             !- Name
  Wall,                                   !- Surface Type
  ,                                       !- Construction Name
  {c29a3d64-2edd-40ce-b14e-f23fcf0a3ee1}, !- Space Name
  Outdoors,                               !- Outside Boundary Condition
  ,                                       !- Outside Boundary Condition Object
  SunExposed,                             !- Sun Exposure
  WindExposed,                            !- Wind Exposure
  ,                                       !- View Factor to Ground
  ,                                       !- Number of Vertices
  -1.77635683940025e-014, -23.7286478180432, 3.048, !- X,Y,Z Vertex 1 {m}
  -1.77635683940025e-014, -23.7286478180432, 0, !- X,Y,Z Vertex 2 {m}
  -1.77635683940025e-014, -8.88178419700125e-015, 0, !- X,Y,Z Vertex 3 {m}
  -1.77635683940025e-014, -8.88178419700125e-015, 3.048; !- X,Y,Z Vertex 4 {m}

OS:Surface,
  {02d9630c-7910-42ce-96c9-7b912b4d361e}, !- Handle
  Surface 15,                             !- Name
  Wall,                                   !- Surface Type
  ,                                       !- Construction Name
  {c29a3d64-2edd-40ce-b14e-f23fcf0a3ee1}, !- Space Name
  Surface,                                !- Outside Boundary Condition
  {cb352ebf-aa6a-43cb-b14e-ee554d387a4b}, !- Outside Boundary Condition Object
  NoSun,                                  !- Sun Exposure
  NoWind,                                 !- Wind Exposure
  ,                                       !- View Factor to Ground
  ,                                       !- Number of Vertices
  -4.57200000000002, -19.1566478180432, 3.048, !- X,Y,Z Vertex 1 {m}
  -4.57200000000002, -19.1566478180432, 0, !- X,Y,Z Vertex 2 {m}
  -1.77635683940025e-014, -23.7286478180432, 0, !- X,Y,Z Vertex 3 {m}
  -1.77635683940025e-014, -23.7286478180432, 3.048; !- X,Y,Z Vertex 4 {m}

OS:Surface,
  {548cfe4c-a433-4a0a-a961-1547a666ec8d}, !- Handle
  Surface 16,                             !- Name
  Wall,                                   !- Surface Type
  ,                                       !- Construction Name