
OS:Version,
  {e2d8d14d-2409-464d-bf36-205bc2f5ee8d}, !- Handle
  2.7.2;                                  !- Version Identifier

OS:SpaceType,
  {bfff27c5-492a-4e26-8dda-38d81dc0aa47}, !- Handle
  LargeHotel Banquet,                     !- Name
  ,                                       !- Default Construction Set Name
  ,                                       !- Default Schedule Set Name
  {93d91c3a-42bc-4f7b-b2e0-e952d66b8e67}, !- Group Rendering Name
  ,                                       !- Design Specification Outdoor Air Object Name
  ,                                       !- Standards Template
  LargeHotel,                             !- Standards Building Type
  Banquet;                                !- Standards Space Type

OS:Rendering:Color,
  {93d91c3a-42bc-4f7b-b2e0-e952d66b8e67}, !- Handle
  LargeHotel Banquet,                     !- Name
  230,                                    !- Rendering Red Value
  196,                                    !- Rendering Green Value
  120;                                    !- Rendering Blue Value

OS:SpaceType,
  {6ec74234-497e-47ae-ab62-52dae4fa7a59}, !- Handle
  LargeHotel Cafe,                        !- Name
  ,                                       !- Default Construction Set Name
  ,                                       !- Default Schedule Set Name
  {e2f989bc-2448-4a20-82cd-f1dd7f1d9cf4}, !- Group Rendering Name
  ,                                       !- Design Specification Outdoor Air Object Name
  ,                                       !- Standards Template
  LargeHotel,                             !- Standards Building Type
  Cafe;                                   !- Standards Space Type

OS:Rendering:Color,
  {e2f989bc-2448-4a20-82cd-f1dd7f1d9cf4}, !- Handle
  LargeHotel Cafe,                        !- Name
  31,                                     !- Rendering Red Value
  169,                                    !- Rendering Green Value
  34;                                     !- Rendering Blue Value

OS:SpaceType,
  {0911702c-893e-408a-b979-c66defc1806d}, !- Handle
  LargeHotel Corridor,                    !- Name
  ,                                       !- Default Construction Set Name
  ,                                       !- Default Schedule Set Name
  {9cd0751a-cf2c-49d0-86fb-6751a71d5c5c}, !- Group Rendering Name
  ,                                       !- Design Specification Outdoor Air Object Name
  ,                                       !- Standards Template
  LargeHotel,                             !- Standards Building Type
  Corridor;                               !- Standards Space Type

OS:Rendering:Color,
  {9cd0751a-cf2c-49d0-86fb-6751a71d5c5c}, !- Handle
  LargeHotel Corridor,                    !- Name
  169,                                    !- Rendering Red Value
  31,                                     !- Rendering Green Value
  31;                                     !- Rendering Blue Value

OS:SpaceType,
  {0f632151-bde3-4b29-86f6-93acc0377e44}, !- Handle
  LargeHotel GuestRoom,                   !- Name
  ,                                       !- Default Construction Set Name
  ,                                       !- Default Schedule Set Name
  {8550e751-5849-4828-885f-f542aa520607}, !- Group Rendering Name
  ,                                       !- Design Specification Outdoor Air Object Name
  ,                                       !- Standards Template
  LargeHotel,                             !- Standards Building Type
  GuestRoom;                              !- Standards Space Type

OS:Rendering:Color,
  {8550e751-5849-4828-885f-f542aa520607}, !- Handle
  LargeHotel GuestRoom,                   !- Name
  78,                                     !- Rendering Red Value
  167,                                    !- Rendering Green Value
  222;                                    !- Rendering Blue Value

OS:SpaceType,
  {4f230cbf-83bf-4d23-bbe1-c89168dc4782}, !- Handle
  LargeHotel Kitchen,                     !- Name
  ,                                       !- Default Construction Set Name
  ,                                       !- Default Schedule Set Name
  {83700556-bce3-4185-a170-0f822e3fc15c}, !- Group Rendering Name
  ,                                       !- Design Specification Outdoor Air Object Name
  ,                                       !- Standards Template
  LargeHotel,                             !- Standards Building Type
  Kitchen;                                !- Standards Space Type

OS:Rendering:Color,
  {83700556-bce3-4185-a170-0f822e3fc15c}, !- Handle
  LargeHotel Kitchen,                     !- Name
  78,                                     !- Rendering Red Value
  222,                                    !- Rendering Green Value
  133;                                    !- Rendering Blue Value

OS:SpaceType,
  {90caa886-1730-440b-9336-66f8778e46ab}, !- Handle
  LargeHotel Laundry,                     !- Name
  ,                                       !- Default Construction Set Name
  ,                                       !- Default Schedule Set Name
  {d68e8bed-e4b7-430c-be74-25b40dfbd0ba}, !- Group Rendering Name
  ,                                       !- Design Specification Outdoor Air Object Name
  ,                                       !- Standards Template
  LargeHotel,                             !- Standards Building Type
  Laundry;                                !- Standards Space Type

OS:Rendering:Color,
  {d68e8bed-e4b7-430c-be74-25b40dfbd0ba}, !- Handle
  LargeHotel Laundry,                     !- Name
  120,                                    !- Rendering Red Value
  149,                                    !- Rendering Green Value
  230;                                    !- Rendering Blue Value

OS:SpaceType,
  {92baf34b-252c-48a8-8006-96574d2060a5}, !- Handle
  LargeHotel Lobby,                       !- Name
  ,                                       !- Default Construction Set Name
  ,                                       !- Default Schedule Set Name
  {b42002cf-a339-402d-9083-8bcb6e59ca12}, !- Group Rendering Name
  ,                                       !- Design Specification Outdoor Air Object Name
  ,                                       !- Standards Template
  LargeHotel,                             !- Standards Building Type
  Lobby;                                  !- Standards Space Type

OS:Rendering:Color,
  {b42002cf-a339-402d-9083-8bcb6e59ca12}, !- Handle
  LargeHotel Lobby,                       !- Name
  230,                                    !- Rendering Red Value
  157,                                    !- Rendering Green Value
  120;                                    !- Rendering Blue Value

OS:SpaceType,
  {49425ca7-8d0d-4179-81b0-d66bc63dd994}, !- Handle
  LargeHotel Mechanical,                  !- Name
  ,                                       !- Default Construction Set Name
  ,                                       !- Default Schedule Set Name
  {118906a9-4d8e-4a14-b3bb-64090a0da4d0}, !- Group Rendering Name
  ,                                       !- Design Specification Outdoor Air Object Name
  ,                                       !- Standards Template
  LargeHotel,                             !- Standards Building Type
  Mechanical;                             !- Standards Space Type

OS:Rendering:Color,
  {118906a9-4d8e-4a14-b3bb-64090a0da4d0}, !- Handle
  LargeHotel Mechanical,                  !- Name
  41,                                     !- Rendering Red Value
  31,                                     !- Rendering Green Value
  169;                                    !- Rendering Blue Value

OS:SpaceType,
  {13b928c0-a12d-476b-939d-ce10a2bfb3a6}, !- Handle
  LargeHotel Retail,                      !- Name
  ,                                       !- Default Construction Set Name
  ,                                       !- Default Schedule Set Name
  {550ed9b2-a641-4e3f-82dc-d34ddfb2403e}, !- Group Rendering Name
  ,                                       !- Design Specification Outdoor Air Object Name
  ,                                       !- Standards Template
  LargeHotel,                             !- Standards Building Type
  Retail;                                 !- Standards Space Type

OS:Rendering:Color,
  {550ed9b2-a641-4e3f-82dc-d34ddfb2403e}, !- Handle
  LargeHotel Retail,                      !- Name
  171,                                    !- Rendering Red Value
  222,                                    !- Rendering Green Value
  78;                                     !- Rendering Blue Value

OS:SpaceType,
  {6d4359ed-cd4f-410d-a11e-12e568296463}, !- Handle
  LargeHotel Storage,                     !- Name
  ,                                       !- Default Construction Set Name
  ,                                       !- Default Schedule Set Name
  {fc00b905-b5e1-4b73-8e76-3c5108c05291}, !- Group Rendering Name
  ,                                       !- Design Specification Outdoor Air Object Name
  ,                                       !- Standards Template
  LargeHotel,                             !- Standards Building Type
  Storage;                                !- Standards Space Type

OS:Rendering:Color,
  {fc00b905-b5e1-4b73-8e76-3c5108c05291}, !- Handle
  LargeHotel Storage,                     !- Name
  120,                                    !- Rendering Red Value
  149,                                    !- Rendering Green Value
  230;                                    !- Rendering Blue Value

OS:Building,
  {bc73f595-e051-4d90-9621-79081a982cd9}, !- Handle
  90.1-2004|LargeHotel,                   !- Name
  ,                                       !- Building Sector Type
  ,                                       !- North Axis {deg}
  ,                                       !- Nominal Floor to Floor Height {m}
  ,                                       !- Space Type Name
  ,                                       !- Default Construction Set Name
  ;                                       !- Default Schedule Set Name

OS:Site,
  {583b9003-bbc9-409b-88d4-e96ce9a30b9b}, !- Handle
  Site 1,                                 !- Name
  ,                                       !- Latitude {deg}
  ,                                       !- Longitude {deg}
  ,                                       !- Time Zone {hr}
  ,                                       !- Elevation {m}
  ;                                       !- Terrain

OS:BuildingStory,
  {9a780249-468b-4649-9a3a-2e8785c5b347}, !- Handle
  Story Ground,                           !- Name
  0,                                      !- Nominal Z Coordinate {m}
  3.048,                                  !- Nominal Floor to Floor Height {m}
  ,                                       !- Default Construction Set Name
  ,                                       !- Default Schedule Set Name
  ;                                       !- Group Rendering Name

OS:Space,
  {c29cf825-fa6e-448b-b688-ddccb4e55e96}, !- Handle
  LargeHotel Banquet A end_a - Story Ground, !- Name
  {bfff27c5-492a-4e26-8dda-38d81dc0aa47}, !- Space Type Name
  ,                                       !- Default Construction Set Name
  ,                                       !- Default Schedule Set Name
  -0,                                     !- Direction of Relative North {deg}
  -29.3507163920623,                      !- X Origin {m}
  -5.75504242981613,                      !- Y Origin {m}
  0,                                      !- Z Origin {m}
  {9a780249-468b-4649-9a3a-2e8785c5b347}, !- Building Story Name
  {cac31fe7-e1ec-412b-bcc2-0f7f101c109e}; !- Thermal Zone Name

OS:Surface,
  {32b867b5-1aaf-4da6-b15f-7a8298f9d4a1}, !- Handle
  Surface 1,                              !- Name
  Floor,                                  !- Surface Type
  ,                                       !- Construction Name
  {c29cf825-fa6e-448b-b688-ddccb4e55e96}, !- Space Name
  Ground,                                 !- Outside Boundary Condition
  ,                                       !- Outside Boundary Condition Object
  NoSun,                                  !- Sun Exposure
  NoWind,                                 !- Wind Exposure
  ,                                       !- View Factor to Ground
  ,                                       !- Number of Vertices
  -2.8421709430404e-014, 1.77635683940025e-015, 0, !- X,Y,Z Vertex 1 {m}
  -2.8421709430404e-014, 4.572, 0,        !- X,Y,Z Vertex 2 {m}
  4.57199999999997, 4.572, 0,             !- X,Y,Z Vertex 3 {m}
  4.57199999999997, 1.77635683940025e-015, 0; !- X,Y,Z Vertex 4 {m}

OS:Surface,
  {a5a19328-bac7-419e-b2ac-54f13b2f9faf}, !- Handle
  Surface 2,                              !- Name
  Wall,                                   !- Surface Type
  ,                                       !- Construction Name
  {c29cf825-fa6e-448b-b688-ddccb4e55e96}, !- Space Name
  Outdoors,                               !- Outside Boundary Condition
  ,                                       !- Outside Boundary Condition Object
  SunExposed,                             !- Sun Exposure
  WindExposed,                            !- Wind Exposure
  ,                                       !- View Factor to Ground
  ,                                       !- Number of Vertices
  -2.8421709430404e-014, 4.572, 3.048,    !- X,Y,Z Vertex 1 {m}
  -2.8421709430404e-014, 4.572, 0,        !- X,Y,Z Vertex 2 {m}
  -2.8421709430404e-014, 1.77635683940025e-015, 0, !- X,Y,Z Vertex 3 {m}
  -2.8421709430404e-014, 1.77635683940025e-015, 3.048; !- X,Y,Z Vertex 4 {m}

OS:Surface,
  {e9d7ce20-e102-4873-9518-d7f739a8d798}, !- Handle
  Surface 3,                              !- Name
  Wall,                                   !- Surface Type
  ,                                       !- Construction Name
  {c29cf825-fa6e-448b-b688-ddccb4e55e96}, !- Space Name
  Surface,                                !- Outside Boundary Condition
  {da181ba0-2115-4701-aea9-72332095bf63}, !- Outside Boundary Condition Object
  NoSun,                                  !- Sun Exposure
  NoWind,                                 !- Wind Exposure
  ,                                       !- View Factor to Ground
  ,                                       !- Number of Vertices
  4.57199999999997, 4.572, 3.048,         !- X,Y,Z Vertex 1 {m}
  4.57199999999997, 4.572, 0,             !- X,Y,Z Vertex 2 {m}
  -2.8421709430404e-014, 4.572, 0,        !- X,Y,Z Vertex 3 {m}
  -2.8421709430404e-014, 4.572, 3.048;    !- X,Y,Z Vertex 4 {m}

OS:Surface,
  {a9b63454-eacb-4cc8-b973-45c0670e2146}, !- Handle
  Surface 4,                              !- Name
  Wall,                                   !- Surface Type
  ,                                       !- Construction Name
  {c29cf825-fa6e-448b-b688-ddccb4e55e96}, !- Space Name
  Surface,                                !- Outside Boundary Condition
  {bee0518d-5f87-4007-b4fe-94b535c22963}, !- Outside Boundary Condition Object
  NoSun,                                  !- Sun Exposure
  NoWind,                                 !- Wind Exposure
  ,                                       !- View Factor to Ground
  ,                                       !- Number of Vertices
  4.57199999999997, 1.77635683940025e-015, 3.048, !- X,Y,Z Vertex 1 {m}
  4.57199999999997, 1.77635683940025e-015, 0, !- X,Y,Z Vertex 2 {m}
  4.57199999999997, 4.572, 0,             !- X,Y,Z Vertex 3 {m}
  4.57199999999997, 4.572, 3.048;         !- X,Y,Z Vertex 4 {m}

OS:Surface,
  {5de0d55a-9ce6-48bf-8d67-53cf7cb61f69}, !- Handle
  Surface 5,                              !- Name
  Wall,                                   !- Surface Type
  ,                                       !- Construction Name
  {c29cf825-fa6e-448b-b688-ddccb4e55e96}, !- Space Name
  Outdoors,                               !- Outside Boundary Condition
  ,                                       !- Outside Boundary Condition Object
  SunExposed,                             !- Sun Exposure
  WindExposed,                            !- Wind Exposure
  ,                                       !- View Factor to Ground
  ,                                       !- Number of Vertices
  -2.8421709430404e-014, 1.77635683940025e-015, 3.048, !- X,Y,Z Vertex 1 {m}
  -2.8421709430404e-014, 1.77635683940025e-015, 0, !- X,Y,Z Vertex 2 {m}
  4.57199999999997, 1.77635683940025e-015, 0, !- X,Y,Z Vertex 3 {m}
  4.57199999999997, 1.77635683940025e-015, 3.048; !- X,Y,Z Vertex 4 {m}

OS:Surface,
  {46c5d677-415d-49f4-b0d1-66e06780c13b}, !- Handle
  Surface 6,                              !- Name
  RoofCeiling,                            !- Surface Type
  ,                                       !- Construction Name
  {c29cf825-fa6e-448b-b688-ddccb4e55e96}, !- Space Name
  Adiabatic,                              !- Outside Boundary Condition
  ,                                       !- Outside Boundary Condition Object
  NoSun,                                  !- Sun Exposure
  NoWind,                                 !- Wind Exposure
  ,                                       !- View Factor to Ground
  ,                                       !- Number of Vertices
  4.57199999999997, 1.77635683940025e-015, 3.048, !- X,Y,Z Vertex 1 {m}
  4.57199999999997, 4.572, 3.048,         !- X,Y,Z Vertex 2 {m}
  -2.8421709430404e-014, 4.572, 3.048,    !- X,Y,Z Vertex 3 {m}
  -2.8421709430404e-014, 1.77635683940025e-015, 3.048; !- X,Y,Z Vertex 4 {m}

OS:ThermalZone,
  {cac31fe7-e1ec-412b-bcc2-0f7f101c109e}, !- Handle
  Zone LargeHotel Banquet A end_a - Story Ground, !- Name
  1,                                      !- Multiplier
  ,                                       !- Ceiling Height {m}
  ,                                       !- Volume {m3}
  ,                                       !- Floor Area {m2}
  ,                                       !- Zone Inside Convection Algorithm
  ,                                       !- Zone Outside Convection Algorithm
  ,                                       !- Zone Conditioning Equipment List Name
  {9a3bf3b5-64c5-496f-a24a-713104651517}, !- Zone Air Inlet Port List
  {c043481f-246f-4e4c-9906-281df84963cb}, !- Zone Air Exhaust Port List
  {c38842cc-215e-4b62-a14c-d6ac5f023ee3}, !- Zone Air Node Name
  {433be7ae-df0b-4bc9-9466-6e5f3a984118}, !- Zone Return Air Port List
  ,                                       !- Primary Daylighting Control Name
  ,                                       !- Fraction of Zone Controlled by Primary Daylighting Control
  ,                                       !- Secondary Daylighting Control Name
  ,                                       !- Fraction of Zone Controlled by Secondary Daylighting Control
  ,                                       !- Illuminance Map Name
  ,                                       !- Group Rendering Name
  ,                                       !- Thermostat Name
  No;                                     !- Use Ideal Air Loads

OS:Node,
  {9c3bf03a-8e72-41e1-ac28-a18e650d2e1a}, !- Handle
  Node 1,                                 !- Name
  {c38842cc-215e-4b62-a14c-d6ac5f023ee3}, !- Inlet Port
  ;                                       !- Outlet Port

OS:Connection,
  {c38842cc-215e-4b62-a14c-d6ac5f023ee3}, !- Handle
  {796fe135-797d-4967-8071-518f6dd5d0cf}, !- Name
  {cac31fe7-e1ec-412b-bcc2-0f7f101c109e}, !- Source Object
  11,                                     !- Outlet Port
  {9c3bf03a-8e72-41e1-ac28-a18e650d2e1a}, !- Target Object
  2;                                      !- Inlet Port

OS:PortList,
  {9a3bf3b5-64c5-496f-a24a-713104651517}, !- Handle
  {52b5cefd-ff37-4d8b-ad07-2c1d0e799e22}, !- Name
  {cac31fe7-e1ec-412b-bcc2-0f7f101c109e}; !- HVAC Component

OS:PortList,
  {c043481f-246f-4e4c-9906-281df84963cb}, !- Handle
  {a7676c4a-23cd-4c19-bfe0-5035a4bb48da}, !- Name
  {cac31fe7-e1ec-412b-bcc2-0f7f101c109e}; !- HVAC Component

OS:PortList,
  {433be7ae-df0b-4bc9-9466-6e5f3a984118}, !- Handle
  {c72f1b67-9859-4863-8de2-40584ea23961}, !- Name
  {cac31fe7-e1ec-412b-bcc2-0f7f101c109e}; !- HVAC Component

OS:Sizing:Zone,
  {5aee166e-ff82-4bcb-aead-fb57b492b4aa}, !- Handle
  {cac31fe7-e1ec-412b-bcc2-0f7f101c109e}, !- Zone or ZoneList Name
  SupplyAirTemperature,                   !- Zone Cooling Design Supply Air Temperature Input Method
  14,                                     !- Zone Cooling Design Supply Air Temperature {C}
  11.11,                                  !- Zone Cooling Design Supply Air Temperature Difference {deltaC}
  SupplyAirTemperature,                   !- Zone Heating Design Supply Air Temperature Input Method
  40,                                     !- Zone Heating Design Supply Air Temperature {C}
  11.11,                                  !- Zone Heating Design Supply Air Temperature Difference {deltaC}
  0.0085,                                 !- Zone Cooling Design Supply Air Humidity Ratio {kg-H2O/kg-air}
  0.008,                                  !- Zone Heating Design Supply Air Humidity Ratio {kg-H2O/kg-air}
  ,                                       !- Zone Heating Sizing Factor
  ,                                       !- Zone Cooling Sizing Factor
  DesignDay,                              !- Cooling Design Air Flow Method
  ,                                       !- Cooling Design Air Flow Rate {m3/s}
  ,                                       !- Cooling Minimum Air Flow per Zone Floor Area {m3/s-m2}
  ,                                       !- Cooling Minimum Air Flow {m3/s}
  ,                                       !- Cooling Minimum Air Flow Fraction
  DesignDay,                              !- Heating Design Air Flow Method
  ,                                       !- Heating Design Air Flow Rate {m3/s}
  ,                                       !- Heating Maximum Air Flow per Zone Floor Area {m3/s-m2}
  ,                                       !- Heating Maximum Air Flow {m3/s}
  ,                                       !- Heating Maximum Air Flow Fraction
  ,                                       !- Design Zone Air Distribution Effectiveness in Cooling Mode
  ,                                       !- Design Zone Air Distribution Effectiveness in Heating Mode
  No,                                     !- Account for Dedicated Outdoor Air System
  NeutralSupplyAir,                       !- Dedicated Outdoor Air System Control Strategy
  autosize,                               !- Dedicated Outdoor Air Low Setpoint Temperature for Design {C}
  autosize;                               !- Dedicated Outdoor Air High Setpoint Temperature for Design {C}

OS:ZoneHVAC:EquipmentList,
  {91f94599-bde7-4bd4-8748-63208438d845}, !- Handle
  Zone HVAC Equipment List 1,             !- Name
  {cac31fe7-e1ec-412b-bcc2-0f7f101c109e}; !- Thermal Zone

OS:Space,
  {df97401a-e657-4309-acd2-fecf77d065a3}, !- Handle
  LargeHotel Banquet B end_a - Story Ground, !- Name
  {bfff27c5-492a-4e26-8dda-38d81dc0aa47}, !- Space Type Name
  ,                                       !- Default Construction Set Name
  ,                                       !- Default Schedule Set Name
  -0,                                     !- Direction of Relative North {deg}
  -29.3507163920623,                      !- X Origin {m}
  -1.18304242981613,                      !- Y Origin {m}
  0,                                      !- Z Origin {m}
  {9a780249-468b-4649-9a3a-2e8785c5b347}, !- Building Story Name
  {6caa76ef-d852-4745-81a8-50d9a379fef2}; !- Thermal Zone Name

OS:Surface,
  {17e6f2a1-cfc4-49f0-92a4-4149821d2fa2}, !- Handle
  Surface 7,                              !- Name
  Floor,                                  !- Surface Type
  ,                                       !- Construction Name
  {df97401a-e657-4309-acd2-fecf77d065a3}, !- Space Name
  Ground,                                 !- Outside Boundary Condition
  ,                                       !- Outside Boundary Condition Object
  NoSun,                                  !- Sun Exposure
  NoWind,                                 !- Wind Exposure
  ,                                       !- View Factor to Ground
  ,                                       !- Number of Vertices
  -2.8421709430404e-014, 1.55431223447522e-015, 0, !- X,Y,Z Vertex 1 {m}
  -2.8421709430404e-014, 2.36608485963226, 0, !- X,Y,Z Vertex 2 {m}
  4.57199999999997, 2.36608485963226, 0,  !- X,Y,Z Vertex 3 {m}
  4.57199999999997, 1.55431223447522e-015, 0; !- X,Y,Z Vertex 4 {m}

OS:Surface,
  {991e7d90-2dcc-4a0f-a06e-a6b52e18bbb0}, !- Handle
  Surface 8,                              !- Name
  Wall,                                   !- Surface Type
  ,                                       !- Construction Name
  {df97401a-e657-4309-acd2-fecf77d065a3}, !- Space Name
  Outdoors,                               !- Outside Boundary Condition
  ,                                       !- Outside Boundary Condition Object
  SunExposed,                             !- Sun Exposure
  WindExposed,                            !- Wind Exposure
  ,                                       !- View Factor to Ground
  ,                                       !- Number of Vertices
  -2.8421709430404e-014, 2.36608485963226, 3.048, !- X,Y,Z Vertex 1 {m}
  -2.8421709430404e-014, 2.36608485963226, 0, !- X,Y,Z Vertex 2 {m}
  -2.8421709430404e-014, 1.55431223447522e-015, 0, !- X,Y,Z Vertex 3 {m}
  -2.8421709430404e-014, 1.55431223447522e-015, 3.048; !- X,Y,Z Vertex 4 {m}

OS:Surface,
  {24d09477-c090-4f09-a67b-e45fa2ba5b0d}, !- Handle
  Surface 9,                              !- Name
  Wall,                                   !- Surface Type
  ,                                       !- Construction Name
  {df97401a-e657-4309-acd2-fecf77d065a3}, !- Space Name
  Surface,                                !- Outside Boundary Condition
  {5394b813-7010-41c1-92d1-4aea582159e5}, !- Outside Boundary Condition Object
  NoSun,                                  !- Sun Exposure
  NoWind,                                 !- Wind Exposure
  ,                                       !- View Factor to Ground
  ,                                       !- Number of Vertices
  4.57199999999997, 2.36608485963226, 3.048, !- X,Y,Z Vertex 1 {m}
  4.57199999999997, 2.36608485963226, 0,  !- X,Y,Z Vertex 2 {m}
  -2.8421709430404e-014, 2.36608485963226, 0, !- X,Y,Z Vertex 3 {m}
  -2.8421709430404e-014, 2.36608485963226, 3.048; !- X,Y,Z Vertex 4 {m}

OS:Surface,
  {a974724a-4160-4137-ab40-5d47784e8e3d}, !- Handle
  Surface 10,                             !- Name
  Wall,                                   !- Surface Type
  ,                                       !- Construction Name
  {df97401a-e657-4309-acd2-fecf77d065a3}, !- Space Name
  Surface,                                !- Outside Boundary Condition
  {df8035fb-99f4-4c7d-9905-62c0ccb1275a}, !- Outside Boundary Condition Object
  NoSun,                                  !- Sun Exposure
  NoWind,                                 !- Wind Exposure
  ,                                       !- View Factor to Ground
  ,                                       !- Number of Vertices
  4.57199999999997, 1.55431223447522e-015, 3.048, !- X,Y,Z Vertex 1 {m}
  4.57199999999997, 1.55431223447522e-015, 0, !- X,Y,Z Vertex 2 {m}
  4.57199999999997, 2.36608485963226, 0,  !- X,Y,Z Vertex 3 {m}
  4.57199999999997, 2.36608485963226, 3.048; !- X,Y,Z Vertex 4 {m}

OS:Surface,
  {da181ba0-2115-4701-aea9-72332095bf63}, !- Handle
  Surface 11,                             !- Name
  Wall,                                   !- Surface Type
  ,                                       !- Construction Name
  {df97401a-e657-4309-acd2-fecf77d065a3}, !- Space Name
  Surface,                                !- Outside Boundary Condition
  {e9d7ce20-e102-4873-9518-d7f739a8d798}, !- Outside Boundary Condition Object
  NoSun,                                  !- Sun Exposure
  NoWind,                                 !- Wind Exposure
  ,                                       !- View Factor to Ground
  ,                                       !- Number of Vertices
  -2.8421709430404e-014, 1.55431223447522e-015, 3.048, !- X,Y,Z Vertex 1 {m}
  -2.8421709430404e-014, 1.55431223447522e-015, 0, !- X,Y,Z Vertex 2 {m}
  4.57199999999997, 1.55431223447522e-015, 0, !- X,Y,Z Vertex 3 {m}
  4.57199999999997, 1.55431223447522e-015, 3.048; !- X,Y,Z Vertex 4 {m}

OS:Surface,
  {40bec610-73f6-4f3b-8142-5577a549d3f3}, !- Handle
  Surface 12,                             !- Name
  RoofCeiling,                            !- Surface Type
  ,                                       !- Construction Name
  {df97401a-e657-4309-acd2-fecf77d065a3}, !- Space Name
  Adiabatic,                              !- Outside Boundary Condition
  ,                                       !- Outside Boundary Condition Object
  NoSun,                                  !- Sun Exposure
  NoWind,                                 !- Wind Exposure
  ,                                       !- View Factor to Ground
  ,                                       !- Number of Vertices
  4.57199999999997, 1.55431223447522e-015, 3.048, !- X,Y,Z Vertex 1 {m}
  4.57199999999997, 2.36608485963226, 3.048, !- X,Y,Z Vertex 2 {m}
  -2.8421709430404e-014, 2.36608485963226, 3.048, !- X,Y,Z Vertex 3 {m}
  -2.8421709430404e-014, 1.55431223447522e-015, 3.048; !- X,Y,Z Vertex 4 {m}

OS:ThermalZone,
  {6caa76ef-d852-4745-81a8-50d9a379fef2}, !- Handle
  Zone LargeHotel Banquet B end_a - Story Ground, !- Name
  1,                                      !- Multiplier
  ,                                       !- Ceiling Height {m}
  ,                                       !- Volume {m3}
  ,                                       !- Floor Area {m2}
  ,                                       !- Zone Inside Convection Algorithm
  ,                                       !- Zone Outside Convection Algorithm
  ,                                       !- Zone Conditioning Equipment List Name
  {03288f99-a7e5-461e-8090-e1414ca962f3}, !- Zone Air Inlet Port List