
OS:Version,
  {cbeafa8b-0b68-49ae-9b4f-850671fcb13c}, !- Handle
  2.7.2;                                  !- Version Identifier

OS:SpaceType,
  {a3149f47-b340-43ae-89c8-4b9f080e15a2}, !- Handle
  LargeHotel Banquet,                     !- Name
  ,                                       !- Default Construction Set Name
  ,                                       !- Default Schedule Set Name
  {7deb0862-b53e-420f-811f-a32468e57145}, !- Group Rendering Name
  ,                                       !- Design Specification Outdoor Air Object Name
  ,                                       !- Standards Template
  LargeHotel,                             !- Standards Building Type
  Banquet;                                !- Standards Space Type

OS:Rendering:Color,
  {7deb0862-b53e-420f-811f-a32468e57145}, !- Handle
  LargeHotel Banquet,                     !- Name
  230,                                    !- Rendering Red Value
  196,                                    !- Rendering Green Value
  120;                                    !- Rendering Blue Value

OS:SpaceType,
  {c87f5ef0-2e0a-433a-9457-1f890c0465c9}, !- Handle
  LargeHotel Cafe,                        !- Name
  ,                                       !- Default Construction Set Name
  ,                                       !- Default Schedule Set Name
  {a2a28028-e692-4c35-acbe-4ec30bb3d333}, !- Group Rendering Name
  ,                                       !- Design Specification Outdoor Air Object Name
  ,                                       !- Standards Template
  LargeHotel,                             !- Standards Building Type
  Cafe;                                   !- Standards Space Type

OS:Rendering:Color,
  {a2a28028-e692-4c35-acbe-4ec30bb3d333}, !- Handle
  LargeHotel Cafe,                        !- Name
  31,                                     !- Rendering Red Value
  169,                                    !- Rendering Green Value
  34;                                     !- Rendering Blue Value

OS:SpaceType,
  {e05b093b-13aa-4158-b67e-176b8bc133da}, !- Handle
  LargeHotel Corridor,                    !- Name
  ,                                       !- Default Construction Set Name
  ,                                       !- Default Schedule Set Name
  {f2e041d4-a00c-4627-b023-e4c1c64464e9}, !- Group Rendering Name
  ,                                       !- Design Specification Outdoor Air Object Name
  ,                                       !- Standards Template
  LargeHotel,                             !- Standards Building Type
  Corridor;                               !- Standards Space Type

OS:Rendering:Color,
  {f2e041d4-a00c-4627-b023-e4c1c64464e9}, !- Handle
  LargeHotel Corridor,                    !- Name
  169,                                    !- Rendering Red Value
  31,                                     !- Rendering Green Value
  31;                                     !- Rendering Blue Value

OS:SpaceType,
  {d2a7c4c2-616a-4f4d-9fdf-138285b295d3}, !- Handle
  LargeHotel GuestRoom,                   !- Name
  ,                                       !- Default Construction Set Name
  ,                                       !- Default Schedule Set Name
  {7f6d8293-3bf8-4326-ba35-befb7acb941d}, !- Group Rendering Name
  ,                                       !- Design Specification Outdoor Air Object Name
  ,                                       !- Standards Template
  LargeHotel,                             !- Standards Building Type
  GuestRoom;                              !- Standards Space Type

OS:Rendering:Color,
  {7f6d8293-3bf8-4326-ba35-befb7acb941d}, !- Handle
  LargeHotel GuestRoom,                   !- Name
  78,                                     !- Rendering Red Value
  167,                                    !- Rendering Green Value
  222;                                    !- Rendering Blue Value

OS:SpaceType,
  {a464e884-c152-4446-a462-5633a548b0b3}, !- Handle
  LargeHotel Kitchen,                     !- Name
  ,                                       !- Default Construction Set Name
  ,                                       !- Default Schedule Set Name
  {ac475b03-12bf-4ef5-b152-ea5fe9ba14b2}, !- Group Rendering Name
  ,                                       !- Design Specification Outdoor Air Object Name
  ,                                       !- Standards Template
  LargeHotel,                             !- Standards Building Type
  Kitchen;                                !- Standards Space Type

OS:Rendering:Color,
  {ac475b03-12bf-4ef5-b152-ea5fe9ba14b2}, !- Handle
  LargeHotel Kitchen,                     !- Name
  78,                                     !- Rendering Red Value
  222,                                    !- Rendering Green Value
  133;                                    !- Rendering Blue Value

OS:SpaceType,
  {a740724d-55b0-403b-861b-e1ce3aa5f4f7}, !- Handle
  LargeHotel Laundry,                     !- Name
  ,                                       !- Default Construction Set Name
  ,                                       !- Default Schedule Set Name
  {0e62944a-dd49-4609-86b7-80f00da781cf}, !- Group Rendering Name
  ,                                       !- Design Specification Outdoor Air Object Name
  ,                                       !- Standards Template
  LargeHotel,                             !- Standards Building Type
  Laundry;                                !- Standards Space Type

OS:Rendering:Color,
  {0e62944a-dd49-4609-86b7-80f00da781cf}, !- Handle
  LargeHotel Laundry,                     !- Name
  120,                                    !- Rendering Red Value
  149,                                    !- Rendering Green Value
  230;                                    !- Rendering Blue Value

OS:SpaceType,
  {1de624fb-df1d-4a8c-b765-8508889f2ab0}, !- Handle
  LargeHotel Lobby,                       !- Name
  ,                                       !- Default Construction Set Name
  ,                                       !- Default Schedule Set Name
  {e1d037f2-2897-4ddc-92d6-9cd3946e91d9}, !- Group Rendering Name
  ,                                       !- Design Specification Outdoor Air Object Name
  ,                                       !- Standards Template
  LargeHotel,                             !- Standards Building Type
  Lobby;                                  !- Standards Space Type

OS:Rendering:Color,
  {e1d037f2-2897-4ddc-92d6-9cd3946e91d9}, !- Handle
  LargeHotel Lobby,                       !- Name
  230,                                    !- Rendering Red Value
  157,                                    !- Rendering Green Value
  120;                                    !- Rendering Blue Value

OS:SpaceType,
  {d565e777-e9b6-4d4d-b3ef-9ce3a0f785d2}, !- Handle
  LargeHotel Mechanical,                  !- Name
  ,                                       !- Default Construction Set Name
  ,                                       !- Default Schedule Set Name
  {67cf47d7-cb9e-4d0a-8774-9b31ad2aab2f}, !- Group Rendering Name
  ,                                       !- Design Specification Outdoor Air Object Name
  ,                                       !- Standards Template
  LargeHotel,                             !- Standards Building Type
  Mechanical;                             !- Standards Space Type

OS:Rendering:Color,
  {67cf47d7-cb9e-4d0a-8774-9b31ad2aab2f}, !- Handle
  LargeHotel Mechanical,                  !- Name
  41,                                     !- Rendering Red Value
  31,                                     !- Rendering Green Value
  169;                                    !- Rendering Blue Value

OS:SpaceType,
  {f6b6855c-b49e-45ac-9939-741fd2292352}, !- Handle
  LargeHotel Retail,                      !- Name
  ,                                       !- Default Construction Set Name
  ,                                       !- Default Schedule Set Name
  {d223ed64-5968-4cba-a804-f86ffd29205f}, !- Group Rendering Name
  ,                                       !- Design Specification Outdoor Air Object Name
  ,                                       !- Standards Template
  LargeHotel,                             !- Standards Building Type
  Retail;                                 !- Standards Space Type

OS:Rendering:Color,
  {d223ed64-5968-4cba-a804-f86ffd29205f}, !- Handle
  LargeHotel Retail,                      !- Name
  171,                                    !- Rendering Red Value
  222,                                    !- Rendering Green Value
  78;                                     !- Rendering Blue Value

OS:SpaceType,
  {b123e4ac-ce66-4ca0-8ee8-0773661a748d}, !- Handle
  LargeHotel Storage,                     !- Name
  ,                                       !- Default Construction Set Name
  ,                                       !- Default Schedule Set Name
  {c6191f43-2eff-4e19-8f57-07152472eff6}, !- Group Rendering Name
  ,                                       !- Design Specification Outdoor Air Object Name
  ,                                       !- Standards Template
  LargeHotel,                             !- Standards Building Type
  Storage;                                !- Standards Space Type

OS:Rendering:Color,
  {c6191f43-2eff-4e19-8f57-07152472eff6}, !- Handle
  LargeHotel Storage,                     !- Name
  120,                                    !- Rendering Red Value
  149,                                    !- Rendering Green Value
  230;                                    !- Rendering Blue Value

OS:Building,
  {5e7863b0-cf70-462d-b8e3-fa33ca6e27fc}, !- Handle
  90.1-2004|LargeHotel,                   !- Name
  ,                                       !- Building Sector Type
  ,                                       !- North Axis {deg}
  ,                                       !- Nominal Floor to Floor Height {m}
  ,                                       !- Space Type Name
  ,                                       !- Default Construction Set Name
  ;                                       !- Default Schedule Set Name

OS:Site,
  {bc628240-d3da-4d6b-a6dc-b7aeec0d33c7}, !- Handle
  Site 1,                                 !- Name
  ,                                       !- Latitude {deg}
  ,                                       !- Longitude {deg}
  ,                                       !- Time Zone {hr}
  ,                                       !- Elevation {m}
  ;                                       !- Terrain

OS:BuildingStory,
  {abde24ac-84b1-45b0-a896-49fd7df586c1}, !- Handle
  Story Ground,                           !- Name
  0,                                      !- Nominal Z Coordinate {m}
  3.048,                                  !- Nominal Floor to Floor Height {m}
  ,                                       !- Default Construction Set Name
  ,                                       !- Default Schedule Set Name
  ;                                       !- Group Rendering Name

OS:Space,
  {e1746d8f-95ed-46f2-a9a6-2125cf38061d}, !- Handle
  LargeHotel Banquet A end_a - Story Ground, !- Name
  {a3149f47-b340-43ae-89c8-4b9f080e15a2}, !- Space Type Name
  ,                                       !- Default Construction Set Name
  ,                                       !- Default Schedule Set Name
  -0,                                     !- Direction of Relative North {deg}
  -29.3507163920623,                      !- X Origin {m}
  -5.75504242981613,                      !- Y Origin {m}
  0,                                      !- Z Origin {m}
  {abde24ac-84b1-45b0-a896-49fd7df586c1}, !- Building Story Name
  {c5c09873-7242-4177-8634-67008bde7c77}; !- Thermal Zone Name

OS:Surface,
  {7303d066-a4ef-4876-ab59-a89d7007808b}, !- Handle
  Surface 1,                              !- Name
  Floor,                                  !- Surface Type
  ,                                       !- Construction Name
  {e1746d8f-95ed-46f2-a9a6-2125cf38061d}, !- Space Name
  Ground,                                 !- Outside Boundary Condition
  ,                                       !- Outside Boundary Condition Object
  NoSun,                                  !- Sun Exposure
  NoWind,                                 !- Wind Exposure
  ,                                       !- View Factor to Ground
  ,                                       !- Number of Vertices
  -2.8421709430404e-014, 1.77635683940025e-015, 0, !- X,Y,Z Vertex 1 {m}
  -2.8421709430404e-014, 4.572, 0,        !- X,Y,Z Vertex 2 {m}
  4.57199999999997, 4.572, 0,             !- X,Y,Z Vertex 3 {m}
  4.57199999999997, 1.77635683940025e-015, 0; !- X,Y,Z Vertex 4 {m}

OS:Surface,
  {143c6d71-4763-4842-b182-c94f7b240970}, !- Handle
  Surface 2,                              !- Name
  Wall,                                   !- Surface Type
  ,                                       !- Construction Name
  {e1746d8f-95ed-46f2-a9a6-2125cf38061d}, !- Space Name
  Outdoors,                               !- Outside Boundary Condition
  ,                                       !- Outside Boundary Condition Object
  SunExposed,                             !- Sun Exposure
  WindExposed,                            !- Wind Exposure
  ,                                       !- View Factor to Ground
  ,                                       !- Number of Vertices
  -2.8421709430404e-014, 4.572, 3.048,    !- X,Y,Z Vertex 1 {m}
  -2.8421709430404e-014, 4.572, 0,        !- X,Y,Z Vertex 2 {m}
  -2.8421709430404e-014, 1.77635683940025e-015, 0, !- X,Y,Z Vertex 3 {m}
  -2.8421709430404e-014, 1.77635683940025e-015, 3.048; !- X,Y,Z Vertex 4 {m}

OS:Surface,
  {9b8f4f18-de78-45f3-87a6-a0788281783b}, !- Handle
  Surface 3,                              !- Name
  Wall,                                   !- Surface Type
  ,                                       !- Construction Name
  {e1746d8f-95ed-46f2-a9a6-2125cf38061d}, !- Space Name
  Surface,                                !- Outside Boundary Condition
  {c14c8b2f-ff68-4bac-bf06-afcdee3aae31}, !- Outside Boundary Condition Object
  NoSun,                                  !- Sun Exposure
  NoWind,                                 !- Wind Exposure
  ,                                       !- View Factor to Ground
  ,                                       !- Number of Vertices
  4.57199999999997, 4.572, 3.048,         !- X,Y,Z Vertex 1 {m}
  4.57199999999997, 4.572, 0,             !- X,Y,Z Vertex 2 {m}
  -2.8421709430404e-014, 4.572, 0,        !- X,Y,Z Vertex 3 {m}
  -2.8421709430404e-014, 4.572, 3.048;    !- X,Y,Z Vertex 4 {m}

OS:Surface,
  {f3a76ba0-1d79-41cd-adcf-6a5af880813b}, !- Handle
  Surface 4,                              !- Name
  Wall,                                   !- Surface Type
  ,                                       !- Construction Name
  {e1746d8f-95ed-46f2-a9a6-2125cf38061d}, !- Space Name
  Surface,                                !- Outside Boundary Condition
  {1c3a59c7-fd07-44e0-a859-c819e4976c99}, !- Outside Boundary Condition Object
  NoSun,                                  !- Sun Exposure
  NoWind,                                 !- Wind Exposure
  ,                                       !- View Factor to Ground
  ,                                       !- Number of Vertices
  4.57199999999997, 1.77635683940025e-015, 3.048, !- X,Y,Z Vertex 1 {m}
  4.57199999999997, 1.77635683940025e-015, 0, !- X,Y,Z Vertex 2 {m}
  4.57199999999997, 4.572, 0,             !- X,Y,Z Vertex 3 {m}
  4.57199999999997, 4.572, 3.048;         !- X,Y,Z Vertex 4 {m}

OS:Surface,
  {b1187464-e621-43ac-8e1a-6becc7c478f6}, !- Handle
  Surface 5,                              !- Name
  Wall,                                   !- Surface Type
  ,                                       !- Construction Name
  {e1746d8f-95ed-46f2-a9a6-2125cf38061d}, !- Space Name
  Outdoors,                               !- Outside Boundary Condition
  ,                                       !- Outside Boundary Condition Object
  SunExposed,                             !- Sun Exposure
  WindExposed,                            !- Wind Exposure
  ,                                       !- View Factor to Ground
  ,                                       !- Number of Vertices
  -2.8421709430404e-014, 1.77635683940025e-015, 3.048, !- X,Y,Z Vertex 1 {m}
  -2.8421709430404e-014, 1.77635683940025e-015, 0, !- X,Y,Z Vertex 2 {m}
  4.57199999999997, 1.77635683940025e-015, 0, !- X,Y,Z Vertex 3 {m}
  4.57199999999997, 1.77635683940025e-015, 3.048; !- X,Y,Z Vertex 4 {m}

OS:Surface,
  {2b7d16e3-c688-4d77-ba04-7e01f3c8a369}, !- Handle
  Surface 6,                              !- Name
  RoofCeiling,                            !- Surface Type
  ,                                       !- Construction Name
  {e1746d8f-95ed-46f2-a9a6-2125cf38061d}, !- Space Name
  Adiabatic,                              !- Outside Boundary Condition
  ,                                       !- Outside Boundary Condition Object
  NoSun,                                  !- Sun Exposure
  NoWind,                                 !- Wind Exposure
  ,                                       !- View Factor to Ground
  ,                                       !- Number of Vertices
  4.57199999999997, 1.77635683940025e-015, 3.048, !- X,Y,Z Vertex 1 {m}
  4.57199999999997, 4.572, 3.048,         !- X,Y,Z Vertex 2 {m}
  -2.8421709430404e-014, 4.572, 3.048,    !- X,Y,Z Vertex 3 {m}
  -2.8421709430404e-014, 1.77635683940025e-015, 3.048; !- X,Y,Z Vertex 4 {m}

OS:ThermalZone,
  {c5c09873-7242-4177-8634-67008bde7c77}, !- Handle
  Zone LargeHotel Banquet A end_a - Story Ground, !- Name
  1,                                      !- Multiplier
  ,                                       !- Ceiling Height {m}
  ,                                       !- Volume {m3}
  ,                                       !- Floor Area {m2}
  ,                                       !- Zone Inside Convection Algorithm
  ,                                       !- Zone Outside Convection Algorithm
  ,                                       !- Zone Conditioning Equipment List Name
  {61168dcd-8eed-4419-b53d-e490728175e8}, !- Zone Air Inlet Port List
  {c5e7e4a8-0abb-4fb9-b774-af482dffb896}, !- Zone Air Exhaust Port List
  {e3772606-f5a5-42ae-9166-ac5ac41ac06e}, !- Zone Air Node Name
  {7c87e8c3-919f-4316-a2a7-f19ca2f09fc6}, !- Zone Return Air Port List
  ,                                       !- Primary Daylighting Control Name
  ,                                       !- Fraction of Zone Controlled by Primary Daylighting Control
  ,                                       !- Secondary Daylighting Control Name
  ,                                       !- Fraction of Zone Controlled by Secondary Daylighting Control
  ,                                       !- Illuminance Map Name
  ,                                       !- Group Rendering Name
  ,                                       !- Thermostat Name
  No;                                     !- Use Ideal Air Loads

OS:Node,
  {626904b4-50b6-4a4f-9001-c029e3cf4eff}, !- Handle
  Node 1,                                 !- Name
  {e3772606-f5a5-42ae-9166-ac5ac41ac06e}, !- Inlet Port
  ;                                       !- Outlet Port

OS:Connection,
  {e3772606-f5a5-42ae-9166-ac5ac41ac06e}, !- Handle
  {28419eeb-72e5-42b7-b278-32144b353696}, !- Name
  {c5c09873-7242-4177-8634-67008bde7c77}, !- Source Object
  11,                                     !- Outlet Port
  {626904b4-50b6-4a4f-9001-c029e3cf4eff}, !- Target Object
  2;                                      !- Inlet Port

OS:PortList,
  {61168dcd-8eed-4419-b53d-e490728175e8}, !- Handle
  {41f1f80d-6b26-437c-9a82-9a2f015e1d6b}, !- Name
  {c5c09873-7242-4177-8634-67008bde7c77}; !- HVAC Component

OS:PortList,
  {c5e7e4a8-0abb-4fb9-b774-af482dffb896}, !- Handle
  {d28d9b71-20a8-4291-969a-a9826900f5c5}, !- Name
  {c5c09873-7242-4177-8634-67008bde7c77}; !- HVAC Component

OS:PortList,
  {7c87e8c3-919f-4316-a2a7-f19ca2f09fc6}, !- Handle
  {ad4cde96-5f18-4159-b0bc-b447902685ed}, !- Name
  {c5c09873-7242-4177-8634-67008bde7c77}; !- HVAC Component

OS:Sizing:Zone,
  {08972017-ff5b-4dd5-b1fc-a08a29aafa37}, !- Handle
  {c5c09873-7242-4177-8634-67008bde7c77}, !- Zone or ZoneList Name
  SupplyAirTemperature,                   !- Zone Cooling Design Supply Air Temperature Input Method
  14,                                     !- Zone Cooling Design Supply Air Temperature {C}
  11.11,                                  !- Zone Cooling Design Supply Air Temperature Difference {deltaC}
  SupplyAirTemperature,                   !- Zone Heating Design Supply Air Temperature Input Method
  40,                                     !- Zone Heating Design Supply Air Temperature {C}
  11.11,                                  !- Zone Heating Design Supply Air Temperature Difference {deltaC}
  0.0085,                                 !- Zone Cooling Design Supply Air Humidity Ratio {kg-H2O/kg-air}
  0.008,                                  !- Zone Heating Design Supply Air Humidity Ratio {kg-H2O/kg-air}
  ,                                       !- Zone Heating Sizing Factor
  ,                                       !- Zone Cooling Sizing Factor
  DesignDay,                              !- Cooling Design Air Flow Method
  ,                                       !- Cooling Design Air Flow Rate {m3/s}
  ,                                       !- Cooling Minimum Air Flow per Zone Floor Area {m3/s-m2}
  ,                                       !- Cooling Minimum Air Flow {m3/s}
  ,                                       !- Cooling Minimum Air Flow Fraction
  DesignDay,                              !- Heating Design Air Flow Method
  ,                                       !- Heating Design Air Flow Rate {m3/s}
  ,                                       !- Heating Maximum Air Flow per Zone Floor Area {m3/s-m2}
  ,                                       !- Heating Maximum Air Flow {m3/s}
  ,                                       !- Heating Maximum Air Flow Fraction
  ,                                       !- Design Zone Air Distribution Effectiveness in Cooling Mode
  ,                                       !- Design Zone Air Distribution Effectiveness in Heating Mode
  No,                                     !- Account for Dedicated Outdoor Air System
  NeutralSupplyAir,                       !- Dedicated Outdoor Air System Control Strategy
  autosize,                               !- Dedicated Outdoor Air Low Setpoint Temperature for Design {C}
  autosize;                               !- Dedicated Outdoor Air High Setpoint Temperature for Design {C}

OS:ZoneHVAC:EquipmentList,
  {18fdaffd-a30a-406d-8860-4ca675903b37}, !- Handle
  Zone HVAC Equipment List 1,             !- Name
  {c5c09873-7242-4177-8634-67008bde7c77}; !- Thermal Zone

OS:Space,
  {782ada49-6b80-46a8-afa1-74163067bab0}, !- Handle
  LargeHotel Banquet B end_a - Story Ground, !- Name
  {a3149f47-b340-43ae-89c8-4b9f080e15a2}, !- Space Type Name
  ,                                       !- Default Construction Set Name
  ,                                       !- Default Schedule Set Name
  -0,                                     !- Direction of Relative North {deg}
  -29.3507163920623,                      !- X Origin {m}
  -1.18304242981613,                      !- Y Origin {m}
  0,                                      !- Z Origin {m}
  {abde24ac-84b1-45b0-a896-49fd7df586c1}, !- Building Story Name
  {802fb217-f278-4c81-bf8b-89ef96d59648}; !- Thermal Zone Name

OS:Surface,
  {8ae25601-1590-42f2-b900-3be5a349a6e9}, !- Handle
  Surface 7,                              !- Name
  Floor,                                  !- Surface Type
  ,                                       !- Construction Name
  {782ada49-6b80-46a8-afa1-74163067bab0}, !- Space Name
  Ground,                                 !- Outside Boundary Condition
  ,                                       !- Outside Boundary Condition Object
  NoSun,                                  !- Sun Exposure
  NoWind,                                 !- Wind Exposure
  ,                                       !- View Factor to Ground
  ,                                       !- Number of Vertices
  -2.8421709430404e-014, 1.55431223447522e-015, 0, !- X,Y,Z Vertex 1 {m}
  -2.8421709430404e-014, 2.36608485963226, 0, !- X,Y,Z Vertex 2 {m}
  4.57199999999997, 2.36608485963226, 0,  !- X,Y,Z Vertex 3 {m}
  4.57199999999997, 1.55431223447522e-015, 0; !- X,Y,Z Vertex 4 {m}

OS:Surface,
  {c2c35678-d9fd-47f2-a41e-317338bdcd08}, !- Handle
  Surface 8,                              !- Name
  Wall,                                   !- Surface Type
  ,                                       !- Construction Name
  {782ada49-6b80-46a8-afa1-74163067bab0}, !- Space Name
  Outdoors,                               !- Outside Boundary Condition
  ,                                       !- Outside Boundary Condition Object
  SunExposed,                             !- Sun Exposure
  WindExposed,                            !- Wind Exposure
  ,                                       !- View Factor to Ground
  ,                                       !- Number of Vertices
  -2.8421709430404e-014, 2.36608485963226, 3.048, !- X,Y,Z Vertex 1 {m}
  -2.8421709430404e-014, 2.36608485963226, 0, !- X,Y,Z Vertex 2 {m}
  -2.8421709430404e-014, 1.55431223447522e-015, 0, !- X,Y,Z Vertex 3 {m}
  -2.8421709430404e-014, 1.55431223447522e-015, 3.048; !- X,Y,Z Vertex 4 {m}

OS:Surface,
  {3e1b1bac-0464-40e1-ae17-b8a916c2130b}, !- Handle
  Surface 9,                              !- Name
  Wall,                                   !- Surface Type
  ,                                       !- Construction Name
  {782ada49-6b80-46a8-afa1-74163067bab0}, !- Space Name
  Surface,                                !- Outside Boundary Condition
  {ee2708b4-fe60-439e-a15c-7a8593d16b76}, !- Outside Boundary Condition Object
  NoSun,                                  !- Sun Exposure
  NoWind,                                 !- Wind Exposure
  ,                                       !- View Factor to Ground
  ,                                       !- Number of Vertices
  4.57199999999997, 2.36608485963226, 3.048, !- X,Y,Z Vertex 1 {m}
  4.57199999999997, 2.36608485963226, 0,  !- X,Y,Z Vertex 2 {m}
  -2.8421709430404e-014, 2.36608485963226, 0, !- X,Y,Z Vertex 3 {m}
  -2.8421709430404e-014, 2.36608485963226, 3.048; !- X,Y,Z Vertex 4 {m}

OS:Surface,
  {4724d34c-813c-4e6d-a29a-3678cb038157}, !- Handle
  Surface 10,                             !- Name
  Wall,                                   !- Surface Type
  ,                                       !- Construction Name
  {782ada49-6b80-46a8-afa1-74163067bab0}, !- Space Name
  Surface,                                !- Outside Boundary Condition
  {22e43bc3-c7ba-4d71-9801-6236c47febe1}, !- Outside Boundary Condition Object
  NoSun,                                  !- Sun Exposure
  NoWind,                                 !- Wind Exposure
  ,                                       !- View Factor to Ground
  ,                                       !- Number of Vertices
  4.57199999999997, 1.55431223447522e-015, 3.048, !- X,Y,Z Vertex 1 {m}
  4.57199999999997, 1.55431223447522e-015, 0, !- X,Y,Z Vertex 2 {m}
  4.57199999999997, 2.36608485963226, 0,  !- X,Y,Z Vertex 3 {m}
  4.57199999999997, 2.36608485963226, 3.048; !- X,Y,Z Vertex 4 {m}

OS:Surface,
  {c14c8b2f-ff68-4bac-bf06-afcdee3aae31}, !- Handle
  Surface 11,                             !- Name
  Wall,                                   !- Surface Type
  ,                                       !- Construction Name
  {782ada49-6b80-46a8-afa1-74163067bab0}, !- Space Name
  Surface,                                !- Outside Boundary Condition
  {9b8f4f18-de78-45f3-87a6-a0788281783b}, !- Outside Boundary Condition Object
  NoSun,                                  !- Sun Exposure
  NoWind,                                 !- Wind Exposure
  ,                                       !- View Factor to Ground
  ,                                       !- Number of Vertices
  -2.8421709430404e-014, 1.55431223447522e-015, 3.048, !- X,Y,Z Vertex 1 {m}
  -2.8421709430404e-014, 1.55431223447522e-015, 0, !- X,Y,Z Vertex 2 {m}
  4.57199999999997, 1.55431223447522e-015, 0, !- X,Y,Z Vertex 3 {m}
  4.57199999999997, 1.55431223447522e-015, 3.048; !- X,Y,Z Vertex 4 {m}

OS:Surface,
  {6376510f-d848-4c81-9f99-527f8908b727}, !- Handle
  Surface 12,                             !- Name
  RoofCeiling,                            !- Surface Type
  ,                                       !- Construction Name
  {782ada49-6b80-46a8-afa1-74163067bab0}, !- Space Name
  Adiabatic,                              !- Outside Boundary Condition
  ,                                       !- Outside Boundary Condition Object
  NoSun,                                  !- Sun Exposure
  NoWind,                                 !- Wind Exposure
  ,                                       !- View Factor to Ground
  ,                                       !- Number of Vertices
  4.57199999999997, 1.55431223447522e-015, 3.048, !- X,Y,Z Vertex 1 {m}
  4.57199999999997, 2.36608485963226, 3.048, !- X,Y,Z Vertex 2 {m}
  -2.8421709430404e-014, 2.36608485963226, 3.048, !- X,Y,Z Vertex 3 {m}
  -2.8421709430404e-014, 1.55431223447522e-015, 3.048; !- X,Y,Z Vertex 4 {m}

OS:ThermalZone,
  {802fb217-f278-4c81-bf8b-89ef96d59648}, !- Handle
  Zone LargeHotel Banquet B end_a - Story Ground, !- Name
  1,                                      !- Multiplier
  ,                                       !- Ceiling Height {m}
  ,                                       !- Volume {m3}
  ,                                       !- Floor Area {m2}
  ,                                       !- Zone Inside Convection Algorithm
  ,                                       !- Zone Outside Convection Algorithm
  ,                                       !- Zone Conditioning Equipment List Name
  {e97312cd-8707-4ae6-ae2f-2820cfe7af9a}, !- Zone Air Inlet Port List