
OS:Version,
  {4de1ff5c-f0bf-4759-871a-4c8fda90aaab}, !- Handle
  2.7.2;                                  !- Version Identifier

OS:SpaceType,
  {8a113cb2-3a02-4d0a-8199-bdfe9302ceec}, !- Handle
  Office WholeBuilding - Sm Office,       !- Name
  ,                                       !- Default Construction Set Name
  ,                                       !- Default Schedule Set Name
  {0ba82833-eb32-4eb6-a6a3-fe26791a2a5c}, !- Group Rendering Name
  ,                                       !- Design Specification Outdoor Air Object Name
  ,                                       !- Standards Template
  Office,                                 !- Standards Building Type
  WholeBuilding - Sm Office;              !- Standards Space Type

OS:Rendering:Color,
  {0ba82833-eb32-4eb6-a6a3-fe26791a2a5c}, !- Handle
  Office WholeBuilding - Sm Office,       !- Name
  120,                                    !- Rendering Red Value
  230,                                    !- Rendering Green Value
  199;                                    !- Rendering Blue Value

OS:Building,
  {51f16405-00f4-4e39-8bbb-cc4c73acb072}, !- Handle
  90.1-2004|SmallOffice,                  !- Name
  ,                                       !- Building Sector Type
  ,                                       !- North Axis {deg}
  ,                                       !- Nominal Floor to Floor Height {m}
  {8a113cb2-3a02-4d0a-8199-bdfe9302ceec}, !- Space Type Name
  ,                                       !- Default Construction Set Name
  ;                                       !- Default Schedule Set Name

OS:Site,
  {246f15f4-3895-4e0b-8f5f-7e3bce43517a}, !- Handle
  Site 1,                                 !- Name
  ,                                       !- Latitude {deg}
  ,                                       !- Longitude {deg}
  ,                                       !- Time Zone {hr}
  ,                                       !- Elevation {m}
  ;                                       !- Terrain

OS:BuildingStory,
  {2f58b4cf-3f78-4b12-963c-f118109208fd}, !- Handle
  Story Ground,                           !- Name
  0,                                      !- Nominal Z Coordinate {m}
  3.048,                                  !- Nominal Floor to Floor Height {m}
  ,                                       !- Default Construction Set Name
  ,                                       !- Default Schedule Set Name
  ;                                       !- Group Rendering Name

OS:Space,
  {0712c1a5-342f-4c72-8559-7bcadb1c6f92}, !- Handle
  West Perimeter Space - Story Ground,    !- Name
  ,                                       !- Space Type Name
  ,                                       !- Default Construction Set Name
  ,                                       !- Default Schedule Set Name
  -0,                                     !- Direction of Relative North {deg}
  -17.7964858635324,                      !- X Origin {m}
  -11.8643239090216,                      !- Y Origin {m}
  0,                                      !- Z Origin {m}
  {2f58b4cf-3f78-4b12-963c-f118109208fd}, !- Building Story Name
  {ae02f066-edf9-4489-acaf-5a2468ac16e3}; !- Thermal Zone Name

OS:Surface,
  {02101d4a-0712-4ade-9571-38edfb54576f}, !- Handle
  Surface 1,                              !- Name
  Floor,                                  !- Surface Type
  ,                                       !- Construction Name
  {0712c1a5-342f-4c72-8559-7bcadb1c6f92}, !- Space Name
  Ground,                                 !- Outside Boundary Condition
  ,                                       !- Outside Boundary Condition Object
  NoSun,                                  !- Sun Exposure
  NoWind,                                 !- Wind Exposure
  ,                                       !- View Factor to Ground
  ,                                       !- Number of Vertices
  1.77635683940025e-014, 8.88178419700125e-015, 0, !- X,Y,Z Vertex 1 {m}
  1.77635683940025e-014, 23.7286478180432, 0, !- X,Y,Z Vertex 2 {m}
  4.57200000000002, 19.1566478180432, 0,  !- X,Y,Z Vertex 3 {m}
  4.57200000000002, 4.572, 0;             !- X,Y,Z Vertex 4 {m}

OS:Surface,
  {1614f6d5-c128-4574-9469-4afb286b88e6}, !- Handle
  Surface 2,                              !- Name
  Wall,                                   !- Surface Type
  ,                                       !- Construction Name
  {0712c1a5-342f-4c72-8559-7bcadb1c6f92}, !- Space Name
  Outdoors,                               !- Outside Boundary Condition
  ,                                       !- Outside Boundary Condition Object
  SunExposed,                             !- Sun Exposure
  WindExposed,                            !- Wind Exposure
  ,                                       !- View Factor to Ground
  ,                                       !- Number of Vertices
  1.77635683940025e-014, 23.7286478180432, 3.048, !- X,Y,Z Vertex 1 {m}
  1.77635683940025e-014, 23.7286478180432, 0, !- X,Y,Z Vertex 2 {m}
  1.77635683940025e-014, 8.88178419700125e-015, 0, !- X,Y,Z Vertex 3 {m}
  1.77635683940025e-014, 8.88178419700125e-015, 3.048; !- X,Y,Z Vertex 4 {m}

OS:Surface,
  {3a6c36bb-8226-4fd2-848b-7e1287fd1fb3}, !- Handle
  Surface 3,                              !- Name
  Wall,                                   !- Surface Type
  ,                                       !- Construction Name
  {0712c1a5-342f-4c72-8559-7bcadb1c6f92}, !- Space Name
  Surface,                                !- Outside Boundary Condition
  {50b00891-2b71-47cf-8444-87d7a6488992}, !- Outside Boundary Condition Object
  NoSun,                                  !- Sun Exposure
  NoWind,                                 !- Wind Exposure
  ,                                       !- View Factor to Ground
  ,                                       !- Number of Vertices
  4.57200000000002, 19.1566478180432, 3.048, !- X,Y,Z Vertex 1 {m}
  4.57200000000002, 19.1566478180432, 0,  !- X,Y,Z Vertex 2 {m}
  1.77635683940025e-014, 23.7286478180432, 0, !- X,Y,Z Vertex 3 {m}
  1.77635683940025e-014, 23.7286478180432, 3.048; !- X,Y,Z Vertex 4 {m}

OS:Surface,
  {97141594-a8d1-48d5-aec7-51f6e604a80a}, !- Handle
  Surface 4,                              !- Name
  Wall,                                   !- Surface Type
  ,                                       !- Construction Name
  {0712c1a5-342f-4c72-8559-7bcadb1c6f92}, !- Space Name
  Surface,                                !- Outside Boundary Condition
  {649c537c-d364-489b-8ee2-0ad8f7907c19}, !- Outside Boundary Condition Object
  NoSun,                                  !- Sun Exposure
  NoWind,                                 !- Wind Exposure
  ,                                       !- View Factor to Ground
  ,                                       !- Number of Vertices
  4.57200000000002, 4.572, 3.048,         !- X,Y,Z Vertex 1 {m}
  4.57200000000002, 4.572, 0,             !- X,Y,Z Vertex 2 {m}
  4.57200000000002, 19.1566478180432, 0,  !- X,Y,Z Vertex 3 {m}
  4.57200000000002, 19.1566478180432, 3.048; !- X,Y,Z Vertex 4 {m}

OS:Surface,
  {be379466-dd6e-4c02-bb35-f54b6a863342}, !- Handle
  Surface 5,                              !- Name
  Wall,                                   !- Surface Type
  ,                                       !- Construction Name
  {0712c1a5-342f-4c72-8559-7bcadb1c6f92}, !- Space Name
  Surface,                                !- Outside Boundary Condition
  {b6f3b37f-e8c7-4f52-8f7f-0f769fa03c6b}, !- Outside Boundary Condition Object
  NoSun,                                  !- Sun Exposure
  NoWind,                                 !- Wind Exposure
  ,                                       !- View Factor to Ground
  ,                                       !- Number of Vertices
  1.77635683940025e-014, 8.88178419700125e-015, 3.048, !- X,Y,Z Vertex 1 {m}
  1.77635683940025e-014, 8.88178419700125e-015, 0, !- X,Y,Z Vertex 2 {m}
  4.57200000000002, 4.572, 0,             !- X,Y,Z Vertex 3 {m}
  4.57200000000002, 4.572, 3.048;         !- X,Y,Z Vertex 4 {m}

OS:Surface,
  {4d203cff-4653-43fb-ac8c-50b9fa994ebe}, !- Handle
  Surface 6,                              !- Name
  RoofCeiling,                            !- Surface Type
  ,                                       !- Construction Name
  {0712c1a5-342f-4c72-8559-7bcadb1c6f92}, !- Space Name
  Adiabatic,                              !- Outside Boundary Condition
  ,                                       !- Outside Boundary Condition Object
  NoSun,                                  !- Sun Exposure
  NoWind,                                 !- Wind Exposure
  ,                                       !- View Factor to Ground
  ,                                       !- Number of Vertices
  4.57200000000002, 4.572, 3.048,         !- X,Y,Z Vertex 1 {m}
  4.57200000000002, 19.1566478180432, 3.048, !- X,Y,Z Vertex 2 {m}
  1.77635683940025e-014, 23.7286478180432, 3.048, !- X,Y,Z Vertex 3 {m}
  1.77635683940025e-014, 8.88178419700125e-015, 3.048; !- X,Y,Z Vertex 4 {m}

OS:ThermalZone,
  {ae02f066-edf9-4489-acaf-5a2468ac16e3}, !- Handle
  Zone West Perimeter Space - Story Ground, !- Name
  1,                                      !- Multiplier
  ,                                       !- Ceiling Height {m}
  ,                                       !- Volume {m3}
  ,                                       !- Floor Area {m2}
  ,                                       !- Zone Inside Convection Algorithm
  ,                                       !- Zone Outside Convection Algorithm
  ,                                       !- Zone Conditioning Equipment List Name
  {b40d7aa4-3f1d-4dbd-91d4-04b506b9effd}, !- Zone Air Inlet Port List
  {9b49f013-f234-43be-89b7-a49887ede03d}, !- Zone Air Exhaust Port List
  {2d6a1c89-d714-4de4-8729-1ec82a62f76b}, !- Zone Air Node Name
  {c5894239-dd79-44c8-b064-0121c39ac3e7}, !- Zone Return Air Port List
  ,                                       !- Primary Daylighting Control Name
  ,                                       !- Fraction of Zone Controlled by Primary Daylighting Control
  ,                                       !- Secondary Daylighting Control Name
  ,                                       !- Fraction of Zone Controlled by Secondary Daylighting Control
  ,                                       !- Illuminance Map Name
  ,                                       !- Group Rendering Name
  ,                                       !- Thermostat Name
  No;                                     !- Use Ideal Air Loads

OS:Node,
  {7576b584-0a9b-473a-adb8-212d336ce8d3}, !- Handle
  Node 1,                                 !- Name
  {2d6a1c89-d714-4de4-8729-1ec82a62f76b}, !- Inlet Port
  ;                                       !- Outlet Port

OS:Connection,
  {2d6a1c89-d714-4de4-8729-1ec82a62f76b}, !- Handle
  {a468c506-ee65-48af-ac9c-a05a0582b96c}, !- Name
  {ae02f066-edf9-4489-acaf-5a2468ac16e3}, !- Source Object
  11,                                     !- Outlet Port
  {7576b584-0a9b-473a-adb8-212d336ce8d3}, !- Target Object
  2;                                      !- Inlet Port

OS:PortList,
  {b40d7aa4-3f1d-4dbd-91d4-04b506b9effd}, !- Handle
  {a91b2015-9f61-48ee-a087-be6b38a96203}, !- Name
  {ae02f066-edf9-4489-acaf-5a2468ac16e3}; !- HVAC Component

OS:PortList,
  {9b49f013-f234-43be-89b7-a49887ede03d}, !- Handle
  {f73d4c37-8c89-40db-9c7d-637e13359ec9}, !- Name
  {ae02f066-edf9-4489-acaf-5a2468ac16e3}; !- HVAC Component

OS:PortList,
  {c5894239-dd79-44c8-b064-0121c39ac3e7}, !- Handle
  {828d8299-422b-460c-b77a-5223f3489aef}, !- Name
  {ae02f066-edf9-4489-acaf-5a2468ac16e3}; !- HVAC Component

OS:Sizing:Zone,
  {2f3ed3a1-9d4e-470e-9583-059cdd4a115e}, !- Handle
  {ae02f066-edf9-4489-acaf-5a2468ac16e3}, !- Zone or ZoneList Name
  SupplyAirTemperature,                   !- Zone Cooling Design Supply Air Temperature Input Method
  14,                                     !- Zone Cooling Design Supply Air Temperature {C}
  11.11,                                  !- Zone Cooling Design Supply Air Temperature Difference {deltaC}
  SupplyAirTemperature,                   !- Zone Heating Design Supply Air Temperature Input Method
  40,                                     !- Zone Heating Design Supply Air Temperature {C}
  11.11,                                  !- Zone Heating Design Supply Air Temperature Difference {deltaC}
  0.0085,                                 !- Zone Cooling Design Supply Air Humidity Ratio {kg-H2O/kg-air}
  0.008,                                  !- Zone Heating Design Supply Air Humidity Ratio {kg-H2O/kg-air}
  ,                                       !- Zone Heating Sizing Factor
  ,                                       !- Zone Cooling Sizing Factor
  DesignDay,                              !- Cooling Design Air Flow Method
  ,                                       !- Cooling Design Air Flow Rate {m3/s}
  ,                                       !- Cooling Minimum Air Flow per Zone Floor Area {m3/s-m2}
  ,                                       !- Cooling Minimum Air Flow {m3/s}
  ,                                       !- Cooling Minimum Air Flow Fraction
  DesignDay,                              !- Heating Design Air Flow Method
  ,                                       !- Heating Design Air Flow Rate {m3/s}
  ,                                       !- Heating Maximum Air Flow per Zone Floor Area {m3/s-m2}
  ,                                       !- Heating Maximum Air Flow {m3/s}
  ,                                       !- Heating Maximum Air Flow Fraction
  ,                                       !- Design Zone Air Distribution Effectiveness in Cooling Mode
  ,                                       !- Design Zone Air Distribution Effectiveness in Heating Mode
  No,                                     !- Account for Dedicated Outdoor Air System
  NeutralSupplyAir,                       !- Dedicated Outdoor Air System Control Strategy
  autosize,                               !- Dedicated Outdoor Air Low Setpoint Temperature for Design {C}
  autosize;                               !- Dedicated Outdoor Air High Setpoint Temperature for Design {C}

OS:ZoneHVAC:EquipmentList,
  {ca2d5e8e-2a51-4362-9abd-f74c8ebf57e8}, !- Handle
  Zone HVAC Equipment List 1,             !- Name
  {ae02f066-edf9-4489-acaf-5a2468ac16e3}; !- Thermal Zone

OS:Space,
  {1c7c8fc5-28ba-4cb6-9d35-bbf20e8c42f0}, !- Handle
  North Perimeter Space - Story Ground,   !- Name
  ,                                       !- Space Type Name
  ,                                       !- Default Construction Set Name
  ,                                       !- Default Schedule Set Name
  -0,                                     !- Direction of Relative North {deg}
  -17.7964858635324,                      !- X Origin {m}
  11.8643239090216,                       !- Y Origin {m}
  0,                                      !- Z Origin {m}
  {2f58b4cf-3f78-4b12-963c-f118109208fd}, !- Building Story Name
  {c3d2aa92-233c-4341-9cd0-d63c228efdbc}; !- Thermal Zone Name

OS:Surface,
  {6f1ef9e6-a0f7-4321-b299-de02af5b0a75}, !- Handle
  Surface 7,                              !- Name
  Floor,                                  !- Surface Type
  ,                                       !- Construction Name
  {1c7c8fc5-28ba-4cb6-9d35-bbf20e8c42f0}, !- Space Name
  Ground,                                 !- Outside Boundary Condition
  ,                                       !- Outside Boundary Condition Object
  NoSun,                                  !- Sun Exposure
  NoWind,                                 !- Wind Exposure
  ,                                       !- View Factor to Ground
  ,                                       !- Number of Vertices
  1.77635683940025e-014, -8.88178419700125e-015, 0, !- X,Y,Z Vertex 1 {m}
  35.5929717270648, -8.88178419700125e-015, 0, !- X,Y,Z Vertex 2 {m}
  31.0209717270648, -4.572, 0,            !- X,Y,Z Vertex 3 {m}
  4.57200000000002, -4.572, 0;            !- X,Y,Z Vertex 4 {m}

OS:Surface,
  {eaada056-1e6f-4a20-a9d1-f2a8bbe5fa95}, !- Handle
  Surface 8,                              !- Name
  Wall,                                   !- Surface Type
  ,                                       !- Construction Name
  {1c7c8fc5-28ba-4cb6-9d35-bbf20e8c42f0}, !- Space Name
  Outdoors,                               !- Outside Boundary Condition
  ,                                       !- Outside Boundary Condition Object
  SunExposed,                             !- Sun Exposure
  WindExposed,                            !- Wind Exposure
  ,                                       !- View Factor to Ground
  ,                                       !- Number of Vertices
  35.5929717270648, -8.88178419700125e-015, 3.048, !- X,Y,Z Vertex 1 {m}
  35.5929717270648, -8.88178419700125e-015, 0, !- X,Y,Z Vertex 2 {m}
  1.77635683940025e-014, -8.88178419700125e-015, 0, !- X,Y,Z Vertex 3 {m}
  1.77635683940025e-014, -8.88178419700125e-015, 3.048; !- X,Y,Z Vertex 4 {m}

OS:Surface,
  {e3327258-e249-40e9-8a3f-d4a6a329ebce}, !- Handle
  Surface 9,                              !- Name
  Wall,                                   !- Surface Type
  ,                                       !- Construction Name
  {1c7c8fc5-28ba-4cb6-9d35-bbf20e8c42f0}, !- Space Name
  Surface,                                !- Outside Boundary Condition
  {310d30dd-2580-406c-b690-cf42c68f1083}, !- Outside Boundary Condition Object
  NoSun,                                  !- Sun Exposure
  NoWind,                                 !- Wind Exposure
  ,                                       !- View Factor to Ground
  ,                                       !- Number of Vertices
  31.0209717270648, -4.572, 3.048,        !- X,Y,Z Vertex 1 {m}
  31.0209717270648, -4.572, 0,            !- X,Y,Z Vertex 2 {m}
  35.5929717270648, -8.88178419700125e-015, 0, !- X,Y,Z Vertex 3 {m}
  35.5929717270648, -8.88178419700125e-015, 3.048; !- X,Y,Z Vertex 4 {m}

OS:Surface,
  {15531fd9-5565-4299-b506-581fd868df6c}, !- Handle
  Surface 10,                             !- Name
  Wall,                                   !- Surface Type
  ,                                       !- Construction Name
  {1c7c8fc5-28ba-4cb6-9d35-bbf20e8c42f0}, !- Space Name
  Surface,                                !- Outside Boundary Condition
  {a3aacadf-9d16-4e56-992e-02961067a32d}, !- Outside Boundary Condition Object
  NoSun,                                  !- Sun Exposure
  NoWind,                                 !- Wind Exposure
  ,                                       !- View Factor to Ground
  ,                                       !- Number of Vertices
  4.57200000000002, -4.572, 3.048,        !- X,Y,Z Vertex 1 {m}
  4.57200000000002, -4.572, 0,            !- X,Y,Z Vertex 2 {m}
  31.0209717270648, -4.572, 0,            !- X,Y,Z Vertex 3 {m}
  31.0209717270648, -4.572, 3.048;        !- X,Y,Z Vertex 4 {m}

OS:Surface,
  {50b00891-2b71-47cf-8444-87d7a6488992}, !- Handle
  Surface 11,                             !- Name
  Wall,                                   !- Surface Type
  ,                                       !- Construction Name
  {1c7c8fc5-28ba-4cb6-9d35-bbf20e8c42f0}, !- Space Name
  Surface,                                !- Outside Boundary Condition
  {3a6c36bb-8226-4fd2-848b-7e1287fd1fb3}, !- Outside Boundary Condition Object
  NoSun,                                  !- Sun Exposure
  NoWind,                                 !- Wind Exposure
  ,                                       !- View Factor to Ground
  ,                                       !- Number of Vertices
  1.77635683940025e-014, -8.88178419700125e-015, 3.048, !- X,Y,Z Vertex 1 {m}
  1.77635683940025e-014, -8.88178419700125e-015, 0, !- X,Y,Z Vertex 2 {m}
  4.57200000000002, -4.572, 0,            !- X,Y,Z Vertex 3 {m}
  4.57200000000002, -4.572, 3.048;        !- X,Y,Z Vertex 4 {m}

OS:Surface,
  {97a6b99d-173c-477f-abad-655eddabce9d}, !- Handle
  Surface 12,                             !- Name
  RoofCeiling,                            !- Surface Type
  ,                                       !- Construction Name
  {1c7c8fc5-28ba-4cb6-9d35-bbf20e8c42f0}, !- Space Name
  Adiabatic,                              !- Outside Boundary Condition
  ,                                       !- Outside Boundary Condition Object
  NoSun,                                  !- Sun Exposure
  NoWind,                                 !- Wind Exposure
  ,                                       !- View Factor to Ground
  ,                                       !- Number of Vertices
  4.57200000000002, -4.572, 3.048,        !- X,Y,Z Vertex 1 {m}
  31.0209717270648, -4.572, 3.048,        !- X,Y,Z Vertex 2 {m}
  35.5929717270648, -8.88178419700125e-015, 3.048, !- X,Y,Z Vertex 3 {m}
  1.77635683940025e-014, -8.88178419700125e-015, 3.048; !- X,Y,Z Vertex 4 {m}

OS:ThermalZone,
  {c3d2aa92-233c-4341-9cd0-d63c228efdbc}, !- Handle
  Zone North Perimeter Space - Story Ground, !- Name
  1,                                      !- Multiplier
  ,                                       !- Ceiling Height {m}
  ,                                       !- Volume {m3}
  ,                                       !- Floor Area {m2}
  ,                                       !- Zone Inside Convection Algorithm
  ,                                       !- Zone Outside Convection Algorithm
  ,                                       !- Zone Conditioning Equipment List Name
  {3e2ed9cc-4435-4156-8007-68e071678dcd}, !- Zone Air Inlet Port List
  {5e978439-b9f9-410c-af8d-7a0b768c0c6e}, !- Zone Air Exhaust Port List
  {0f8d5bd2-1e4c-42c2-8c47-070dbcc231e2}, !- Zone Air Node Name
  {013c2cc5-281c-4dfd-b361-b4558fd38bc9}, !- Zone Return Air Port List
  ,                                       !- Primary Daylighting Control Name
  ,                                       !- Fraction of Zone Controlled by Primary Daylighting Control
  ,                                       !- Secondary Daylighting Control Name
  ,                                       !- Fraction of Zone Controlled by Secondary Daylighting Control
  ,                                       !- Illuminance Map Name
  ,                                       !- Group Rendering Name
  ,                                       !- Thermostat Name
  No;                                     !- Use Ideal Air Loads

OS:Node,
  {3a215906-8fd0-4ab0-86db-e68370c6cc89}, !- Handle
  Node 2,                                 !- Name
  {0f8d5bd2-1e4c-42c2-8c47-070dbcc231e2}, !- Inlet Port
  ;                                       !- Outlet Port

OS:Connection,
  {0f8d5bd2-1e4c-42c2-8c47-070dbcc231e2}, !- Handle
  {e8a23aa2-967e-41f3-a275-d7c922b10f8a}, !- Name
  {c3d2aa92-233c-4341-9cd0-d63c228efdbc}, !- Source Object
  11,                                     !- Outlet Port
  {3a215906-8fd0-4ab0-86db-e68370c6cc89}, !- Target Object
  2;                                      !- Inlet Port

OS:PortList,
  {3e2ed9cc-4435-4156-8007-68e071678dcd}, !- Handle
  {aa831b28-25e1-4c3c-89a8-99cfe2fa41c4}, !- Name
  {c3d2aa92-233c-4341-9cd0-d63c228efdbc}; !- HVAC Component

OS:PortList,
  {5e978439-b9f9-410c-af8d-7a0b768c0c6e}, !- Handle
  {6d484ca9-246d-44a8-b4a6-498dc0da8291}, !- Name
  {c3d2aa92-233c-4341-9cd0-d63c228efdbc}; !- HVAC Component

OS:PortList,
  {013c2cc5-281c-4dfd-b361-b4558fd38bc9}, !- Handle
  {f30116ea-1d04-48ec-9e1c-515992cd82f2}, !- Name
  {c3d2aa92-233c-4341-9cd0-d63c228efdbc}; !- HVAC Component

OS:Sizing:Zone,
  {1e77697b-4d82-4054-abdc-b2e62465231d}, !- Handle
  {c3d2aa92-233c-4341-9cd0-d63c228efdbc}, !- Zone or ZoneList Name
  SupplyAirTemperature,                   !- Zone Cooling Design Supply Air Temperature Input Method
  14,                                     !- Zone Cooling Design Supply Air Temperature {C}
  11.11,                                  !- Zone Cooling Design Supply Air Temperature Difference {deltaC}
  SupplyAirTemperature,                   !- Zone Heating Design Supply Air Temperature Input Method
  40,                                     !- Zone Heating Design Supply Air Temperature {C}
  11.11,                                  !- Zone Heating Design Supply Air Temperature Difference {deltaC}
  0.0085,                                 !- Zone Cooling Design Supply Air Humidity Ratio {kg-H2O/kg-air}
  0.008,                                  !- Zone Heating Design Supply Air Humidity Ratio {kg-H2O/kg-air}
  ,                                       !- Zone Heating Sizing Factor
  ,                                       !- Zone Cooling Sizing Factor
  DesignDay,                              !- Cooling Design Air Flow Method
  ,                                       !- Cooling Design Air Flow Rate {m3/s}
  ,                                       !- Cooling Minimum Air Flow per Zone Floor Area {m3/s-m2}
  ,                                       !- Cooling Minimum Air Flow {m3/s}
  ,                                       !- Cooling Minimum Air Flow Fraction
  DesignDay,                              !- Heating Design Air Flow Method
  ,                                       !- Heating Design Air Flow Rate {m3/s}
  ,                                       !- Heating Maximum Air Flow per Zone Floor Area {m3/s-m2}
  ,                                       !- Heating Maximum Air Flow {m3/s}
  ,                                       !- Heating Maximum Air Flow Fraction
  ,                                       !- Design Zone Air Distribution Effectiveness in Cooling Mode
  ,                                       !- Design Zone Air Distribution Effectiveness in Heating Mode
  No,                                     !- Account for Dedicated Outdoor Air System
  NeutralSupplyAir,                       !- Dedicated Outdoor Air System Control Strategy
  autosize,                               !- Dedicated Outdoor Air Low Setpoint Temperature for Design {C}
  autosize;                               !- Dedicated Outdoor Air High Setpoint Temperature for Design {C}

OS:ZoneHVAC:EquipmentList,
  {bac3538f-3641-42e5-8780-646bbe2a123f}, !- Handle
  Zone HVAC Equipment List 2,             !- Name
  {c3d2aa92-233c-4341-9cd0-d63c228efdbc}; !- Thermal Zone

OS:Space,
  {d068a259-b001-4693-8d3b-9679e203d0dc}, !- Handle
  East Perimeter Space - Story Ground,    !- Name
  ,                                       !- Space Type Name
  ,                                       !- Default Construction Set Name
  ,                                       !- Default Schedule Set Name
  -0,                                     !- Direction of Relative North {deg}
  17.7964858635324,                       !- X Origin {m}
  11.8643239090216,                       !- Y Origin {m}
  0,                                      !- Z Origin {m}
  {2f58b4cf-3f78-4b12-963c-f118109208fd}, !- Building Story Name
  {5be52496-ff44-41af-b9c1-d37701519648}; !- Thermal Zone Name

OS:Surface,
  {f74acec4-5a6c-48aa-81bd-ded42ceb4573}, !- Handle
  Surface 13,                             !- Name
  Floor,                                  !- Surface Type
  ,                                       !- Construction Name
  {d068a259-b001-4693-8d3b-9679e203d0dc}, !- Space Name
  Ground,                                 !- Outside Boundary Condition
  ,                                       !- Outside Boundary Condition Object
  NoSun,                                  !- Sun Exposure
  NoWind,                                 !- Wind Exposure
  ,                                       !- View Factor to Ground
  ,                                       !- Number of Vertices
  -1.77635683940025e-014, -8.88178419700125e-015, 0, !- X,Y,Z Vertex 1 {m}
  -1.77635683940025e-014, -23.7286478180432, 0, !- X,Y,Z Vertex 2 {m}
  -4.57200000000002, -19.1566478180432, 0, !- X,Y,Z Vertex 3 {m}
  -4.57200000000002, -4.572, 0;           !- X,Y,Z Vertex 4 {m}

OS:Surface,
  {603635db-d161-4d29-959a-dbcf1f3c4a07}, !- Handle
  Surface 14,                             !- Name
  Wall,                                   !- Surface Type
  ,                                       !- Construction Name
  {d068a259-b001-4693-8d3b-9679e203d0dc}, !- Space Name
  Outdoors,                               !- Outside Boundary Condition
  ,                                       !- Outside Boundary Condition Object
  SunExposed,                             !- Sun Exposure
  WindExposed,                            !- Wind Exposure
  ,                                       !- View Factor to Ground
  ,                                       !- Number of Vertices
  -1.77635683940025e-014, -23.7286478180432, 3.048, !- X,Y,Z Vertex 1 {m}
  -1.77635683940025e-014, -23.7286478180432, 0, !- X,Y,Z Vertex 2 {m}
  -1.77635683940025e-014, -8.88178419700125e-015, 0, !- X,Y,Z Vertex 3 {m}
  -1.77635683940025e-014, -8.88178419700125e-015, 3.048; !- X,Y,Z Vertex 4 {m}

OS:Surface,
  {45d1e29e-3951-4c60-b79c-951f0efc5580}, !- Handle
  Surface 15,                             !- Name
  Wall,                                   !- Surface Type
  ,                                       !- Construction Name
  {d068a259-b001-4693-8d3b-9679e203d0dc}, !- Space Name
  Surface,                                !- Outside Boundary Condition
  {a4bb16bc-6a76-463c-b9d2-552e8c65a933}, !- Outside Boundary Condition Object
  NoSun,                                  !- Sun Exposure
  NoWind,                                 !- Wind Exposure
  ,                                       !- View Factor to Ground
  ,                                       !- Number of Vertices
  -4.57200000000002, -19.1566478180432, 3.048, !- X,Y,Z Vertex 1 {m}
  -4.57200000000002, -19.1566478180432, 0, !- X,Y,Z Vertex 2 {m}
  -1.77635683940025e-014, -23.7286478180432, 0, !- X,Y,Z Vertex 3 {m}
  -1.77635683940025e-014, -23.7286478180432, 3.048; !- X,Y,Z Vertex 4 {m}

OS:Surface,
  {4404282b-4e60-4577-9718-e69a4866e2c8}, !- Handle
  Surface 16,                             !- Name
  Wall,                                   !- Surface Type
  ,                                       !- Construction Name