
OS:Version,
  {d8dfb059-f65b-4243-83be-1c5d218af709}, !- Handle
  2.7.2;                                  !- Version Identifier

OS:SpaceType,
  {e46a52ee-3645-45a9-9a88-27f4471e2bbf}, !- Handle
  MidriseApartment Apartment,             !- Name
  ,                                       !- Default Construction Set Name
  ,                                       !- Default Schedule Set Name
  {21bddf9f-df25-4fa4-8ba0-ae9ecf797293}, !- Group Rendering Name
  ,                                       !- Design Specification Outdoor Air Object Name
  ,                                       !- Standards Template
  MidriseApartment,                       !- Standards Building Type
  Apartment;                              !- Standards Space Type

OS:Rendering:Color,
  {21bddf9f-df25-4fa4-8ba0-ae9ecf797293}, !- Handle
  MidriseApartment Apartment,             !- Name
  78,                                     !- Rendering Red Value
  167,                                    !- Rendering Green Value
  222;                                    !- Rendering Blue Value

OS:SpaceType,
  {c1ef19e5-b989-4bdc-8eb6-6593ca4750f7}, !- Handle
  MidriseApartment Corridor,              !- Name
  ,                                       !- Default Construction Set Name
  ,                                       !- Default Schedule Set Name
  {15e89652-5c72-4455-a479-71c48f8694bc}, !- Group Rendering Name
  ,                                       !- Design Specification Outdoor Air Object Name
  ,                                       !- Standards Template
  MidriseApartment,                       !- Standards Building Type
  Corridor;                               !- Standards Space Type

OS:Rendering:Color,
  {15e89652-5c72-4455-a479-71c48f8694bc}, !- Handle
  MidriseApartment Corridor,              !- Name
  169,                                    !- Rendering Red Value
  31,                                     !- Rendering Green Value
  31;                                     !- Rendering Blue Value

OS:SpaceType,
  {5b6f19c8-4f84-4a82-b2c8-bca32059ffb9}, !- Handle
  MidriseApartment Office,                !- Name
  ,                                       !- Default Construction Set Name
  ,                                       !- Default Schedule Set Name
  {5796f7a1-2224-4a1d-8d45-1e4e950a8af6}, !- Group Rendering Name
  ,                                       !- Design Specification Outdoor Air Object Name
  ,                                       !- Standards Template
  MidriseApartment,                       !- Standards Building Type
  Office;                                 !- Standards Space Type

OS:Rendering:Color,
  {5796f7a1-2224-4a1d-8d45-1e4e950a8af6}, !- Handle
  MidriseApartment Office,                !- Name
  120,                                    !- Rendering Red Value
  230,                                    !- Rendering Green Value
  199;                                    !- Rendering Blue Value

OS:Building,
  {1e48f712-86eb-4023-93a3-f8e4b31b7337}, !- Handle
  90.1-2004|MidriseApartment,             !- Name
  ,                                       !- Building Sector Type
  ,                                       !- North Axis {deg}
  ,                                       !- Nominal Floor to Floor Height {m}
  ,                                       !- Space Type Name
  ,                                       !- Default Construction Set Name
  ;                                       !- Default Schedule Set Name

OS:Site,
  {6037f194-f69b-4f80-a997-2cb3ce623cbc}, !- Handle
  Site 1,                                 !- Name
  ,                                       !- Latitude {deg}
  ,                                       !- Longitude {deg}
  ,                                       !- Time Zone {hr}
  ,                                       !- Elevation {m}
  ;                                       !- Terrain

OS:BuildingStory,
  {d88e7c8a-73c2-4a85-b5b9-a9354b8b4c73}, !- Handle
  Story Ground,                           !- Name
  0,                                      !- Nominal Z Coordinate {m}
  3.048,                                  !- Nominal Floor to Floor Height {m}
  ,                                       !- Default Construction Set Name
  ,                                       !- Default Schedule Set Name
  ;                                       !- Group Rendering Name

OS:Space,
  {ab251783-6d78-49de-a3f0-35c52f5fed68}, !- Handle
  MidriseApartment Apartment A end_a - Story Ground, !- Name
  {e46a52ee-3645-45a9-9a88-27f4471e2bbf}, !- Space Type Name
  ,                                       !- Default Construction Set Name
  ,                                       !- Default Schedule Set Name
  -0,                                     !- Direction of Relative North {deg}
  -21.552614690566,                       !- X Origin {m}
  -7.83731443293308,                      !- Y Origin {m}
  0,                                      !- Z Origin {m}
  {d88e7c8a-73c2-4a85-b5b9-a9354b8b4c73}, !- Building Story Name
  {cee632c7-7510-4239-a97f-d283aeed9dc9}; !- Thermal Zone Name

OS:Surface,
  {b257c9f0-5d47-413b-9a50-aa3e1bc987b9}, !- Handle
  Surface 1,                              !- Name
  Floor,                                  !- Surface Type
  ,                                       !- Construction Name
  {ab251783-6d78-49de-a3f0-35c52f5fed68}, !- Space Name
  Ground,                                 !- Outside Boundary Condition
  ,                                       !- Outside Boundary Condition Object
  NoSun,                                  !- Sun Exposure
  NoWind,                                 !- Wind Exposure
  ,                                       !- View Factor to Ground
  ,                                       !- Number of Vertices
  -2.8421709430404e-014, 0, 0,            !- X,Y,Z Vertex 1 {m}
  -2.8421709430404e-014, 4.572, 0,        !- X,Y,Z Vertex 2 {m}
  4.57199999999997, 4.572, 0,             !- X,Y,Z Vertex 3 {m}
  4.57199999999997, 0, 0;                 !- X,Y,Z Vertex 4 {m}

OS:Surface,
  {ab3210fc-a85f-4319-9be4-d8016ee84965}, !- Handle
  Surface 2,                              !- Name
  Wall,                                   !- Surface Type
  ,                                       !- Construction Name
  {ab251783-6d78-49de-a3f0-35c52f5fed68}, !- Space Name
  Outdoors,                               !- Outside Boundary Condition
  ,                                       !- Outside Boundary Condition Object
  SunExposed,                             !- Sun Exposure
  WindExposed,                            !- Wind Exposure
  ,                                       !- View Factor to Ground
  ,                                       !- Number of Vertices
  -2.8421709430404e-014, 4.572, 3.048,    !- X,Y,Z Vertex 1 {m}
  -2.8421709430404e-014, 4.572, 0,        !- X,Y,Z Vertex 2 {m}
  -2.8421709430404e-014, 0, 0,            !- X,Y,Z Vertex 3 {m}
  -2.8421709430404e-014, 0, 3.048;        !- X,Y,Z Vertex 4 {m}

OS:Surface,
  {b45a4144-cf46-4608-885c-70f2a430d932}, !- Handle
  Surface 3,                              !- Name
  Wall,                                   !- Surface Type
  ,                                       !- Construction Name
  {ab251783-6d78-49de-a3f0-35c52f5fed68}, !- Space Name
  Surface,                                !- Outside Boundary Condition
  {65fe67ee-e097-4d5f-8f2e-a5d887256761}, !- Outside Boundary Condition Object
  NoSun,                                  !- Sun Exposure
  NoWind,                                 !- Wind Exposure
  ,                                       !- View Factor to Ground
  ,                                       !- Number of Vertices
  4.57199999999997, 4.572, 3.048,         !- X,Y,Z Vertex 1 {m}
  4.57199999999997, 4.572, 0,             !- X,Y,Z Vertex 2 {m}
  -2.8421709430404e-014, 4.572, 0,        !- X,Y,Z Vertex 3 {m}
  -2.8421709430404e-014, 4.572, 3.048;    !- X,Y,Z Vertex 4 {m}

OS:Surface,
  {8b012cf1-92a7-46b0-bb2b-8e08d4610a21}, !- Handle
  Surface 4,                              !- Name
  Wall,                                   !- Surface Type
  ,                                       !- Construction Name
  {ab251783-6d78-49de-a3f0-35c52f5fed68}, !- Space Name
  Surface,                                !- Outside Boundary Condition
  {c6fcfee3-365d-4b36-a976-6f33d12d2ce8}, !- Outside Boundary Condition Object
  NoSun,                                  !- Sun Exposure
  NoWind,                                 !- Wind Exposure
  ,                                       !- View Factor to Ground
  ,                                       !- Number of Vertices
  4.57199999999997, 0, 3.048,             !- X,Y,Z Vertex 1 {m}
  4.57199999999997, 0, 0,                 !- X,Y,Z Vertex 2 {m}
  4.57199999999997, 4.572, 0,             !- X,Y,Z Vertex 3 {m}
  4.57199999999997, 4.572, 3.048;         !- X,Y,Z Vertex 4 {m}

OS:Surface,
  {cb69a7f4-fcb7-42dd-bf15-d8c8dbfaf3d8}, !- Handle
  Surface 5,                              !- Name
  Wall,                                   !- Surface Type
  ,                                       !- Construction Name
  {ab251783-6d78-49de-a3f0-35c52f5fed68}, !- Space Name
  Outdoors,                               !- Outside Boundary Condition
  ,                                       !- Outside Boundary Condition Object
  SunExposed,                             !- Sun Exposure
  WindExposed,                            !- Wind Exposure
  ,                                       !- View Factor to Ground
  ,                                       !- Number of Vertices
  -2.8421709430404e-014, 0, 3.048,        !- X,Y,Z Vertex 1 {m}
  -2.8421709430404e-014, 0, 0,            !- X,Y,Z Vertex 2 {m}
  4.57199999999997, 0, 0,                 !- X,Y,Z Vertex 3 {m}
  4.57199999999997, 0, 3.048;             !- X,Y,Z Vertex 4 {m}

OS:Surface,
  {83d8e9c3-316f-49f6-90c4-27f85f526ed6}, !- Handle
  Surface 6,                              !- Name
  RoofCeiling,                            !- Surface Type
  ,                                       !- Construction Name
  {ab251783-6d78-49de-a3f0-35c52f5fed68}, !- Space Name
  Adiabatic,                              !- Outside Boundary Condition
  ,                                       !- Outside Boundary Condition Object
  NoSun,                                  !- Sun Exposure
  NoWind,                                 !- Wind Exposure
  ,                                       !- View Factor to Ground
  ,                                       !- Number of Vertices
  4.57199999999997, 0, 3.048,             !- X,Y,Z Vertex 1 {m}
  4.57199999999997, 4.572, 3.048,         !- X,Y,Z Vertex 2 {m}
  -2.8421709430404e-014, 4.572, 3.048,    !- X,Y,Z Vertex 3 {m}
  -2.8421709430404e-014, 0, 3.048;        !- X,Y,Z Vertex 4 {m}

OS:ThermalZone,
  {cee632c7-7510-4239-a97f-d283aeed9dc9}, !- Handle
  Zone MidriseApartment Apartment A end_a - Story Ground, !- Name
  1,                                      !- Multiplier
  ,                                       !- Ceiling Height {m}
  ,                                       !- Volume {m3}
  ,                                       !- Floor Area {m2}
  ,                                       !- Zone Inside Convection Algorithm
  ,                                       !- Zone Outside Convection Algorithm
  ,                                       !- Zone Conditioning Equipment List Name
  {8f2296b9-f08b-4000-bf25-6130ff9868df}, !- Zone Air Inlet Port List
  {eeeded53-727f-4011-b7b1-c7a51a20f702}, !- Zone Air Exhaust Port List
  {82b7bc44-775c-4a86-a20d-0317ca3d183b}, !- Zone Air Node Name
  {cb4bf6a6-c38f-473c-80d2-0c3fb82e0068}, !- Zone Return Air Port List
  ,                                       !- Primary Daylighting Control Name
  ,                                       !- Fraction of Zone Controlled by Primary Daylighting Control
  ,                                       !- Secondary Daylighting Control Name
  ,                                       !- Fraction of Zone Controlled by Secondary Daylighting Control
  ,                                       !- Illuminance Map Name
  ,                                       !- Group Rendering Name
  ,                                       !- Thermostat Name
  No;                                     !- Use Ideal Air Loads

OS:Node,
  {9f37c74b-c42a-4acb-908b-a3f0425a597c}, !- Handle
  Node 1,                                 !- Name
  {82b7bc44-775c-4a86-a20d-0317ca3d183b}, !- Inlet Port
  ;                                       !- Outlet Port

OS:Connection,
  {82b7bc44-775c-4a86-a20d-0317ca3d183b}, !- Handle
  {8490b7e1-07cc-4966-ba01-d272488aea8b}, !- Name
  {cee632c7-7510-4239-a97f-d283aeed9dc9}, !- Source Object
  11,                                     !- Outlet Port
  {9f37c74b-c42a-4acb-908b-a3f0425a597c}, !- Target Object
  2;                                      !- Inlet Port

OS:PortList,
  {8f2296b9-f08b-4000-bf25-6130ff9868df}, !- Handle
  {2abb3edf-7b54-4939-af19-eae2d52aa0e9}, !- Name
  {cee632c7-7510-4239-a97f-d283aeed9dc9}; !- HVAC Component

OS:PortList,
  {eeeded53-727f-4011-b7b1-c7a51a20f702}, !- Handle
  {b3d02c18-9a4e-4af2-bdbc-47ce19fd4c40}, !- Name
  {cee632c7-7510-4239-a97f-d283aeed9dc9}; !- HVAC Component

OS:PortList,
  {cb4bf6a6-c38f-473c-80d2-0c3fb82e0068}, !- Handle
  {c171972b-d7de-49d8-9b4a-f4f1c115f01b}, !- Name
  {cee632c7-7510-4239-a97f-d283aeed9dc9}; !- HVAC Component

OS:Sizing:Zone,
  {a3bd8fca-ccac-4174-a2f1-42188f2999b7}, !- Handle
  {cee632c7-7510-4239-a97f-d283aeed9dc9}, !- Zone or ZoneList Name
  SupplyAirTemperature,                   !- Zone Cooling Design Supply Air Temperature Input Method
  14,                                     !- Zone Cooling Design Supply Air Temperature {C}
  11.11,                                  !- Zone Cooling Design Supply Air Temperature Difference {deltaC}
  SupplyAirTemperature,                   !- Zone Heating Design Supply Air Temperature Input Method
  40,                                     !- Zone Heating Design Supply Air Temperature {C}
  11.11,                                  !- Zone Heating Design Supply Air Temperature Difference {deltaC}
  0.0085,                                 !- Zone Cooling Design Supply Air Humidity Ratio {kg-H2O/kg-air}
  0.008,                                  !- Zone Heating Design Supply Air Humidity Ratio {kg-H2O/kg-air}
  ,                                       !- Zone Heating Sizing Factor
  ,                                       !- Zone Cooling Sizing Factor
  DesignDay,                              !- Cooling Design Air Flow Method
  ,                                       !- Cooling Design Air Flow Rate {m3/s}
  ,                                       !- Cooling Minimum Air Flow per Zone Floor Area {m3/s-m2}
  ,                                       !- Cooling Minimum Air Flow {m3/s}
  ,                                       !- Cooling Minimum Air Flow Fraction
  DesignDay,                              !- Heating Design Air Flow Method
  ,                                       !- Heating Design Air Flow Rate {m3/s}
  ,                                       !- Heating Maximum Air Flow per Zone Floor Area {m3/s-m2}
  ,                                       !- Heating Maximum Air Flow {m3/s}
  ,                                       !- Heating Maximum Air Flow Fraction
  ,                                       !- Design Zone Air Distribution Effectiveness in Cooling Mode
  ,                                       !- Design Zone Air Distribution Effectiveness in Heating Mode
  No,                                     !- Account for Dedicated Outdoor Air System
  NeutralSupplyAir,                       !- Dedicated Outdoor Air System Control Strategy
  autosize,                               !- Dedicated Outdoor Air Low Setpoint Temperature for Design {C}
  autosize;                               !- Dedicated Outdoor Air High Setpoint Temperature for Design {C}

OS:ZoneHVAC:EquipmentList,
  {a5969049-b4ec-4a4f-9de1-a60ba57647b5}, !- Handle
  Zone HVAC Equipment List 1,             !- Name
  {cee632c7-7510-4239-a97f-d283aeed9dc9}; !- Thermal Zone

OS:Space,
  {3cd4fb9c-4f0d-42d3-a2ac-efb9b26aca9f}, !- Handle
  MidriseApartment Apartment B end_a - Story Ground, !- Name
  {e46a52ee-3645-45a9-9a88-27f4471e2bbf}, !- Space Type Name
  ,                                       !- Default Construction Set Name
  ,                                       !- Default Schedule Set Name
  -0,                                     !- Direction of Relative North {deg}
  -21.552614690566,                       !- X Origin {m}
  -3.26531443293308,                      !- Y Origin {m}
  0,                                      !- Z Origin {m}
  {d88e7c8a-73c2-4a85-b5b9-a9354b8b4c73}, !- Building Story Name
  {628327f2-d2ca-4fea-ac96-d092d7549f96}; !- Thermal Zone Name

OS:Surface,
  {65935192-1b40-404d-a580-e12f656a781d}, !- Handle
  Surface 7,                              !- Name
  Floor,                                  !- Surface Type
  ,                                       !- Construction Name
  {3cd4fb9c-4f0d-42d3-a2ac-efb9b26aca9f}, !- Space Name
  Ground,                                 !- Outside Boundary Condition
  ,                                       !- Outside Boundary Condition Object
  NoSun,                                  !- Sun Exposure
  NoWind,                                 !- Wind Exposure
  ,                                       !- View Factor to Ground
  ,                                       !- Number of Vertices
  -2.8421709430404e-014, -4.44089209850063e-016, 0, !- X,Y,Z Vertex 1 {m}
  -2.8421709430404e-014, 6.53062886586616, 0, !- X,Y,Z Vertex 2 {m}
  4.57199999999997, 6.53062886586616, 0,  !- X,Y,Z Vertex 3 {m}
  4.57199999999997, -4.44089209850063e-016, 0; !- X,Y,Z Vertex 4 {m}

OS:Surface,
  {0c17a6d0-fcf9-46d4-b8a5-3064b1173c5e}, !- Handle
  Surface 8,                              !- Name
  Wall,                                   !- Surface Type
  ,                                       !- Construction Name
  {3cd4fb9c-4f0d-42d3-a2ac-efb9b26aca9f}, !- Space Name
  Outdoors,                               !- Outside Boundary Condition
  ,                                       !- Outside Boundary Condition Object
  SunExposed,                             !- Sun Exposure
  WindExposed,                            !- Wind Exposure
  ,                                       !- View Factor to Ground
  ,                                       !- Number of Vertices
  -2.8421709430404e-014, 6.53062886586616, 3.048, !- X,Y,Z Vertex 1 {m}
  -2.8421709430404e-014, 6.53062886586616, 0, !- X,Y,Z Vertex 2 {m}
  -2.8421709430404e-014, -4.44089209850063e-016, 0, !- X,Y,Z Vertex 3 {m}
  -2.8421709430404e-014, -4.44089209850063e-016, 3.048; !- X,Y,Z Vertex 4 {m}

OS:Surface,
  {604a3c4d-b034-47bf-968a-b9222834789f}, !- Handle
  Surface 9,                              !- Name
  Wall,                                   !- Surface Type
  ,                                       !- Construction Name
  {3cd4fb9c-4f0d-42d3-a2ac-efb9b26aca9f}, !- Space Name
  Surface,                                !- Outside Boundary Condition
  {10aa8a95-ae3e-4f79-ba16-2f27ec5cb5de}, !- Outside Boundary Condition Object
  NoSun,                                  !- Sun Exposure
  NoWind,                                 !- Wind Exposure
  ,                                       !- View Factor to Ground
  ,                                       !- Number of Vertices
  4.57199999999997, 6.53062886586616, 3.048, !- X,Y,Z Vertex 1 {m}
  4.57199999999997, 6.53062886586616, 0,  !- X,Y,Z Vertex 2 {m}
  -2.8421709430404e-014, 6.53062886586616, 0, !- X,Y,Z Vertex 3 {m}
  -2.8421709430404e-014, 6.53062886586616, 3.048; !- X,Y,Z Vertex 4 {m}

OS:Surface,
  {75d5d0bd-3e69-44ec-94b2-4f16d5cf12fa}, !- Handle
  Surface 10,                             !- Name
  Wall,                                   !- Surface Type
  ,                                       !- Construction Name
  {3cd4fb9c-4f0d-42d3-a2ac-efb9b26aca9f}, !- Space Name
  Surface,                                !- Outside Boundary Condition
  {265c79cc-21c4-459e-95e2-7d8088cd0bab}, !- Outside Boundary Condition Object
  NoSun,                                  !- Sun Exposure
  NoWind,                                 !- Wind Exposure
  ,                                       !- View Factor to Ground
  ,                                       !- Number of Vertices
  4.57199999999997, -4.44089209850063e-016, 3.048, !- X,Y,Z Vertex 1 {m}
  4.57199999999997, -4.44089209850063e-016, 0, !- X,Y,Z Vertex 2 {m}
  4.57199999999997, 6.53062886586616, 0,  !- X,Y,Z Vertex 3 {m}
  4.57199999999997, 6.53062886586616, 3.048; !- X,Y,Z Vertex 4 {m}

OS:Surface,
  {65fe67ee-e097-4d5f-8f2e-a5d887256761}, !- Handle
  Surface 11,                             !- Name
  Wall,                                   !- Surface Type
  ,                                       !- Construction Name
  {3cd4fb9c-4f0d-42d3-a2ac-efb9b26aca9f}, !- Space Name
  Surface,                                !- Outside Boundary Condition
  {b45a4144-cf46-4608-885c-70f2a430d932}, !- Outside Boundary Condition Object
  NoSun,                                  !- Sun Exposure
  NoWind,                                 !- Wind Exposure
  ,                                       !- View Factor to Ground
  ,                                       !- Number of Vertices
  -2.8421709430404e-014, -4.44089209850063e-016, 3.048, !- X,Y,Z Vertex 1 {m}
  -2.8421709430404e-014, -4.44089209850063e-016, 0, !- X,Y,Z Vertex 2 {m}
  4.57199999999997, -4.44089209850063e-016, 0, !- X,Y,Z Vertex 3 {m}
  4.57199999999997, -4.44089209850063e-016, 3.048; !- X,Y,Z Vertex 4 {m}

OS:Surface,
  {4f094cb3-8bf1-489d-bf11-cf900eeb053c}, !- Handle
  Surface 12,                             !- Name
  RoofCeiling,                            !- Surface Type
  ,                                       !- Construction Name
  {3cd4fb9c-4f0d-42d3-a2ac-efb9b26aca9f}, !- Space Name
  Adiabatic,                              !- Outside Boundary Condition
  ,                                       !- Outside Boundary Condition Object
  NoSun,                                  !- Sun Exposure
  NoWind,                                 !- Wind Exposure
  ,                                       !- View Factor to Ground
  ,                                       !- Number of Vertices
  4.57199999999997, -4.44089209850063e-016, 3.048, !- X,Y,Z Vertex 1 {m}
  4.57199999999997, 6.53062886586616, 3.048, !- X,Y,Z Vertex 2 {m}
  -2.8421709430404e-014, 6.53062886586616, 3.048, !- X,Y,Z Vertex 3 {m}
  -2.8421709430404e-014, -4.44089209850063e-016, 3.048; !- X,Y,Z Vertex 4 {m}

OS:ThermalZone,
  {628327f2-d2ca-4fea-ac96-d092d7549f96}, !- Handle
  Zone MidriseApartment Apartment B end_a - Story Ground, !- Name
  1,                                      !- Multiplier
  ,                                       !- Ceiling Height {m}
  ,                                       !- Volume {m3}
  ,                                       !- Floor Area {m2}
  ,                                       !- Zone Inside Convection Algorithm
  ,                                       !- Zone Outside Convection Algorithm
  ,                                       !- Zone Conditioning Equipment List Name
  {55e30331-0fcd-4c51-8e68-8e2ff594de41}, !- Zone Air Inlet Port List
  {5ce1e6fb-f83a-4c3e-b5a8-9bada015a513}, !- Zone Air Exhaust Port List
  {3ccf946b-bd35-441c-830f-1d6cd88c4b29}, !- Zone Air Node Name
  {45e8c958-c55d-4991-86d3-beb87f7c3193}, !- Zone Return Air Port List
  ,                                       !- Primary Daylighting Control Name
  ,                                       !- Fraction of Zone Controlled by Primary Daylighting Control
  ,                                       !- Secondary Daylighting Control Name
  ,                                       !- Fraction of Zone Controlled by Secondary Daylighting Control
  ,                                       !- Illuminance Map Name
  ,                                       !- Group Rendering Name
  ,                                       !- Thermostat Name
  No;                                     !- Use Ideal Air Loads

OS:Node,
  {56628453-130a-4417-8572-7cf5df2d4571}, !- Handle
  Node 2,                                 !- Name
  {3ccf946b-bd35-441c-830f-1d6cd88c4b29}, !- Inlet Port
  ;                                       !- Outlet Port

OS:Connection,
  {3ccf946b-bd35-441c-830f-1d6cd88c4b29}, !- Handle
  {28afb38d-9db6-44c0-b763-9d9d85f91984}, !- Name
  {628327f2-d2ca-4fea-ac96-d092d7549f96}, !- Source Object
  11,                                     !- Outlet Port
  {56628453-130a-4417-8572-7cf5df2d4571}, !- Target Object
  2;                                      !- Inlet Port

OS:PortList,
  {55e30331-0fcd-4c51-8e68-8e2ff594de41}, !- Handle
  {6bb0a5fc-41c4-4bcc-afd8-6ae62cbb0b90}, !- Name
  {628327f2-d2ca-4fea-ac96-d092d7549f96}; !- HVAC Component

OS:PortList,
  {5ce1e6fb-f83a-4c3e-b5a8-9bada015a513}, !- Handle
  {df50656f-9915-4ef3-b344-b7fcd83a7e55}, !- Name
  {628327f2-d2ca-4fea-ac96-d092d7549f96}; !- HVAC Component

OS:PortList,
  {45e8c958-c55d-4991-86d3-beb87f7c3193}, !- Handle
  {66de15b7-b7d4-4777-bdd7-27e7ec878216}, !- Name
  {628327f2-d2ca-4fea-ac96-d092d7549f96}; !- HVAC Component

OS:Sizing:Zone,
  {ceace21b-38e4-494b-8ed1-03d785bfa583}, !- Handle
  {628327f2-d2ca-4fea-ac96-d092d7549f96}, !- Zone or ZoneList Name
  SupplyAirTemperature,                   !- Zone Cooling Design Supply Air Temperature Input Method
  14,                                     !- Zone Cooling Design Supply Air Temperature {C}
  11.11,                                  !- Zone Cooling Design Supply Air Temperature Difference {deltaC}
  SupplyAirTemperature,                   !- Zone Heating Design Supply Air Temperature Input Method
  40,                                     !- Zone Heating Design Supply Air Temperature {C}
  11.11,                                  !- Zone Heating Design Supply Air Temperature Difference {deltaC}
  0.0085,                                 !- Zone Cooling Design Supply Air Humidity Ratio {kg-H2O/kg-air}
  0.008,                                  !- Zone Heating Design Supply Air Humidity Ratio {kg-H2O/kg-air}
  ,                                       !- Zone Heating Sizing Factor
  ,                                       !- Zone Cooling Sizing Factor
  DesignDay,                              !- Cooling Design Air Flow Method
  ,                                       !- Cooling Design Air Flow Rate {m3/s}
  ,                                       !- Cooling Minimum Air Flow per Zone Floor Area {m3/s-m2}
  ,                                       !- Cooling Minimum Air Flow {m3/s}
  ,                                       !- Cooling Minimum Air Flow Fraction
  DesignDay,                              !- Heating Design Air Flow Method
  ,                                       !- Heating Design Air Flow Rate {m3/s}
  ,                                       !- Heating Maximum Air Flow per Zone Floor Area {m3/s-m2}
  ,                                       !- Heating Maximum Air Flow {m3/s}
  ,                                       !- Heating Maximum Air Flow Fraction
  ,                                       !- Design Zone Air Distribution Effectiveness in Cooling Mode
  ,                                       !- Design Zone Air Distribution Effectiveness in Heating Mode
  No,                                     !- Account for Dedicated Outdoor Air System
  NeutralSupplyAir,                       !- Dedicated Outdoor Air System Control Strategy
  autosize,                               !- Dedicated Outdoor Air Low Setpoint Temperature for Design {C}
  autosize;                               !- Dedicated Outdoor Air High Setpoint Temperature for Design {C}

OS:ZoneHVAC:EquipmentList,
  {50f20fa0-9f91-4422-a72c-9f3f45d63809}, !- Handle
  Zone HVAC Equipment List 2,             !- Name
  {628327f2-d2ca-4fea-ac96-d092d7549f96}; !- Thermal Zone

OS:Space,
  {8d75d27a-7361-4245-b938-ff2611e04c6b}, !- Handle
  MidriseApartment Apartment C end_a - Story Ground, !- Name
  {e46a52ee-3645-45a9-9a88-27f4471e2bbf}, !- Space Type Name
  ,                                       !- Default Construction Set Name
  ,                                       !- Default Schedule Set Name
  -0,                                     !- Direction of Relative North {deg}
  -21.552614690566,                       !- X Origin {m}
  3.26531443293308,                       !- Y Origin {m}
  0,                                      !- Z Origin {m}
  {d88e7c8a-73c2-4a85-b5b9-a9354b8b4c73}, !- Building Story Name
  {7d5e4556-063b-4874-b089-449002ac995a}; !- Thermal Zone Name

OS:Surface,
  {9143beb3-06e7-4431-bff8-d79054d04150}, !- Handle
  Surface 13,                             !- Name
  Floor,                                  !- Surface Type
  ,                                       !- Construction Name
  {8d75d27a-7361-4245-b938-ff2611e04c6b}, !- Space Name
  Ground,                                 !- Outside Boundary Condition
  ,                                       !- Outside Boundary Condition Object
  NoSun,                                  !- Sun Exposure
  NoWind,                                 !- Wind Exposure
  ,                                       !- View Factor to Ground
  ,                                       !- Number of Vertices
  -2.8421709430404e-014, 4.44089209850063e-016, 0, !- X,Y,Z Vertex 1 {m}
  -2.8421709430404e-014, 4.572, 0,        !- X,Y,Z Vertex 2 {m}
  4.57199999999997, 4.572, 0,             !- X,Y,Z Vertex 3 {m}
  4.57199999999997, 4.44089209850063e-016, 0; !- X,Y,Z Vertex 4 {m}

OS:Surface,
  {d21b4aa2-cbf6-46fa-a555-887dc83e6df7}, !- Handle
  Surface 14,                             !- Name
  Wall,                                   !- Surface Type
  ,                                       !- Construction Name
  {8d75d27a-7361-4245-b938-ff2611e04c6b}, !- Space Name