
OS:Version,
  {b496e5ac-bb64-41d4-b036-590296ba63a5}, !- Handle
  2.7.2;                                  !- Version Identifier

OS:SpaceType,
  {e7ed581c-a72d-40c8-b9b2-0fe3aec98be5}, !- Handle
  LargeHotel Banquet,                     !- Name
  ,                                       !- Default Construction Set Name
  ,                                       !- Default Schedule Set Name
  {8435b119-c098-43fe-9348-8f6a8d65a845}, !- Group Rendering Name
  ,                                       !- Design Specification Outdoor Air Object Name
  ,                                       !- Standards Template
  LargeHotel,                             !- Standards Building Type
  Banquet;                                !- Standards Space Type

OS:Rendering:Color,
  {8435b119-c098-43fe-9348-8f6a8d65a845}, !- Handle
  LargeHotel Banquet,                     !- Name
  230,                                    !- Rendering Red Value
  196,                                    !- Rendering Green Value
  120;                                    !- Rendering Blue Value

OS:SpaceType,
  {ba96143b-f1f5-421a-a3af-992e661cb794}, !- Handle
  LargeHotel Cafe,                        !- Name
  ,                                       !- Default Construction Set Name
  ,                                       !- Default Schedule Set Name
  {613e8ee0-26fb-4793-ab39-2a4e1ed7fc3c}, !- Group Rendering Name
  ,                                       !- Design Specification Outdoor Air Object Name
  ,                                       !- Standards Template
  LargeHotel,                             !- Standards Building Type
  Cafe;                                   !- Standards Space Type

OS:Rendering:Color,
  {613e8ee0-26fb-4793-ab39-2a4e1ed7fc3c}, !- Handle
  LargeHotel Cafe,                        !- Name
  31,                                     !- Rendering Red Value
  169,                                    !- Rendering Green Value
  34;                                     !- Rendering Blue Value

OS:SpaceType,
  {ccc4eedb-756f-4828-8cf5-6a08c74630e5}, !- Handle
  LargeHotel Corridor,                    !- Name
  ,                                       !- Default Construction Set Name
  ,                                       !- Default Schedule Set Name
  {46e2b0ae-4128-415b-a571-0512d3de2301}, !- Group Rendering Name
  ,                                       !- Design Specification Outdoor Air Object Name
  ,                                       !- Standards Template
  LargeHotel,                             !- Standards Building Type
  Corridor;                               !- Standards Space Type

OS:Rendering:Color,
  {46e2b0ae-4128-415b-a571-0512d3de2301}, !- Handle
  LargeHotel Corridor,                    !- Name
  169,                                    !- Rendering Red Value
  31,                                     !- Rendering Green Value
  31;                                     !- Rendering Blue Value

OS:SpaceType,
  {365f818d-4503-4f8b-88a3-f54c67fc9531}, !- Handle
  LargeHotel GuestRoom,                   !- Name
  ,                                       !- Default Construction Set Name
  ,                                       !- Default Schedule Set Name
  {141e2064-c2fa-4af2-94c5-554bc50ed93d}, !- Group Rendering Name
  ,                                       !- Design Specification Outdoor Air Object Name
  ,                                       !- Standards Template
  LargeHotel,                             !- Standards Building Type
  GuestRoom;                              !- Standards Space Type

OS:Rendering:Color,
  {141e2064-c2fa-4af2-94c5-554bc50ed93d}, !- Handle
  LargeHotel GuestRoom,                   !- Name
  78,                                     !- Rendering Red Value
  167,                                    !- Rendering Green Value
  222;                                    !- Rendering Blue Value

OS:SpaceType,
  {7192407b-9d90-42eb-b1ad-4ac7a33a36cf}, !- Handle
  LargeHotel Kitchen,                     !- Name
  ,                                       !- Default Construction Set Name
  ,                                       !- Default Schedule Set Name
  {f9c9b1b4-b5bd-4e3c-bf4c-8b33167fe3c1}, !- Group Rendering Name
  ,                                       !- Design Specification Outdoor Air Object Name
  ,                                       !- Standards Template
  LargeHotel,                             !- Standards Building Type
  Kitchen;                                !- Standards Space Type

OS:Rendering:Color,
  {f9c9b1b4-b5bd-4e3c-bf4c-8b33167fe3c1}, !- Handle
  LargeHotel Kitchen,                     !- Name
  78,                                     !- Rendering Red Value
  222,                                    !- Rendering Green Value
  133;                                    !- Rendering Blue Value

OS:SpaceType,
  {6289cb1d-b2c7-49e5-ab46-252b077eff65}, !- Handle
  LargeHotel Laundry,                     !- Name
  ,                                       !- Default Construction Set Name
  ,                                       !- Default Schedule Set Name
  {2c5da249-e4f6-4c61-9d57-5a9ce843dbea}, !- Group Rendering Name
  ,                                       !- Design Specification Outdoor Air Object Name
  ,                                       !- Standards Template
  LargeHotel,                             !- Standards Building Type
  Laundry;                                !- Standards Space Type

OS:Rendering:Color,
  {2c5da249-e4f6-4c61-9d57-5a9ce843dbea}, !- Handle
  LargeHotel Laundry,                     !- Name
  120,                                    !- Rendering Red Value
  149,                                    !- Rendering Green Value
  230;                                    !- Rendering Blue Value

OS:SpaceType,
  {a061b7ea-9c75-436e-a66d-debb9b6d8f43}, !- Handle
  LargeHotel Lobby,                       !- Name
  ,                                       !- Default Construction Set Name
  ,                                       !- Default Schedule Set Name
  {d80e115c-8c6c-4e56-a13c-a5b13d9bbd23}, !- Group Rendering Name
  ,                                       !- Design Specification Outdoor Air Object Name
  ,                                       !- Standards Template
  LargeHotel,                             !- Standards Building Type
  Lobby;                                  !- Standards Space Type

OS:Rendering:Color,
  {d80e115c-8c6c-4e56-a13c-a5b13d9bbd23}, !- Handle
  LargeHotel Lobby,                       !- Name
  230,                                    !- Rendering Red Value
  157,                                    !- Rendering Green Value
  120;                                    !- Rendering Blue Value

OS:SpaceType,
  {657a8c4f-8252-4c67-aa29-128c765b4be0}, !- Handle
  LargeHotel Mechanical,                  !- Name
  ,                                       !- Default Construction Set Name
  ,                                       !- Default Schedule Set Name
  {24d1d7c6-ce8f-498a-ad93-7a6ef9c6063a}, !- Group Rendering Name
  ,                                       !- Design Specification Outdoor Air Object Name
  ,                                       !- Standards Template
  LargeHotel,                             !- Standards Building Type
  Mechanical;                             !- Standards Space Type

OS:Rendering:Color,
  {24d1d7c6-ce8f-498a-ad93-7a6ef9c6063a}, !- Handle
  LargeHotel Mechanical,                  !- Name
  41,                                     !- Rendering Red Value
  31,                                     !- Rendering Green Value
  169;                                    !- Rendering Blue Value

OS:SpaceType,
  {695e1134-ea22-4fcc-88aa-b699416579ff}, !- Handle
  LargeHotel Retail,                      !- Name
  ,                                       !- Default Construction Set Name
  ,                                       !- Default Schedule Set Name
  {d58d87ab-cced-4aed-a7f8-2cd02eb1692d}, !- Group Rendering Name
  ,                                       !- Design Specification Outdoor Air Object Name
  ,                                       !- Standards Template
  LargeHotel,                             !- Standards Building Type
  Retail;                                 !- Standards Space Type

OS:Rendering:Color,
  {d58d87ab-cced-4aed-a7f8-2cd02eb1692d}, !- Handle
  LargeHotel Retail,                      !- Name
  171,                                    !- Rendering Red Value
  222,                                    !- Rendering Green Value
  78;                                     !- Rendering Blue Value

OS:SpaceType,
  {97bbb138-6286-47a2-88bf-c2738750e447}, !- Handle
  LargeHotel Storage,                     !- Name
  ,                                       !- Default Construction Set Name
  ,                                       !- Default Schedule Set Name
  {5643e998-fbfc-4e8b-9c0c-aed736f84f34}, !- Group Rendering Name
  ,                                       !- Design Specification Outdoor Air Object Name
  ,                                       !- Standards Template
  LargeHotel,                             !- Standards Building Type
  Storage;                                !- Standards Space Type

OS:Rendering:Color,
  {5643e998-fbfc-4e8b-9c0c-aed736f84f34}, !- Handle
  LargeHotel Storage,                     !- Name
  120,                                    !- Rendering Red Value
  149,                                    !- Rendering Green Value
  230;                                    !- Rendering Blue Value

OS:Building,
  {738c13e6-730b-47a7-9180-e9dc23d11eeb}, !- Handle
  90.1-2004|LargeHotel,                   !- Name
  ,                                       !- Building Sector Type
  ,                                       !- North Axis {deg}
  ,                                       !- Nominal Floor to Floor Height {m}
  ,                                       !- Space Type Name
  ,                                       !- Default Construction Set Name
  ;                                       !- Default Schedule Set Name

OS:Site,
  {7a200bf4-4c31-4155-b4c6-a2b4feab3103}, !- Handle
  Site 1,                                 !- Name
  ,                                       !- Latitude {deg}
  ,                                       !- Longitude {deg}
  ,                                       !- Time Zone {hr}
  ,                                       !- Elevation {m}
  ;                                       !- Terrain

OS:BuildingStory,
  {c642f94b-6764-4bea-870b-b133b3e8aed7}, !- Handle
  Story Ground,                           !- Name
  0,                                      !- Nominal Z Coordinate {m}
  3.048,                                  !- Nominal Floor to Floor Height {m}
  ,                                       !- Default Construction Set Name
  ,                                       !- Default Schedule Set Name
  ;                                       !- Group Rendering Name

OS:Space,
  {ee7e3550-4fa8-4823-9888-90bdaed58601}, !- Handle
  LargeHotel Banquet A end_a - Story Ground, !- Name
  {e7ed581c-a72d-40c8-b9b2-0fe3aec98be5}, !- Space Type Name
  ,                                       !- Default Construction Set Name
  ,                                       !- Default Schedule Set Name
  -0,                                     !- Direction of Relative North {deg}
  -29.3507163920623,                      !- X Origin {m}
  -5.75504242981613,                      !- Y Origin {m}
  0,                                      !- Z Origin {m}
  {c642f94b-6764-4bea-870b-b133b3e8aed7}, !- Building Story Name
  {9416ccb5-2397-4af8-a754-300423fc0fe7}; !- Thermal Zone Name

OS:Surface,
  {6532caf0-e115-49b1-9abf-3e78dbe531ed}, !- Handle
  Surface 1,                              !- Name
  Floor,                                  !- Surface Type
  ,                                       !- Construction Name
  {ee7e3550-4fa8-4823-9888-90bdaed58601}, !- Space Name
  Ground,                                 !- Outside Boundary Condition
  ,                                       !- Outside Boundary Condition Object
  NoSun,                                  !- Sun Exposure
  NoWind,                                 !- Wind Exposure
  ,                                       !- View Factor to Ground
  ,                                       !- Number of Vertices
  -2.8421709430404e-014, 1.77635683940025e-015, 0, !- X,Y,Z Vertex 1 {m}
  -2.8421709430404e-014, 4.572, 0,        !- X,Y,Z Vertex 2 {m}
  4.57199999999997, 4.572, 0,             !- X,Y,Z Vertex 3 {m}
  4.57199999999997, 1.77635683940025e-015, 0; !- X,Y,Z Vertex 4 {m}

OS:Surface,
  {69b5695b-7ff2-4d2c-a814-ddb10ebc2657}, !- Handle
  Surface 2,                              !- Name
  Wall,                                   !- Surface Type
  ,                                       !- Construction Name
  {ee7e3550-4fa8-4823-9888-90bdaed58601}, !- Space Name
  Outdoors,                               !- Outside Boundary Condition
  ,                                       !- Outside Boundary Condition Object
  SunExposed,                             !- Sun Exposure
  WindExposed,                            !- Wind Exposure
  ,                                       !- View Factor to Ground
  ,                                       !- Number of Vertices
  -2.8421709430404e-014, 4.572, 3.048,    !- X,Y,Z Vertex 1 {m}
  -2.8421709430404e-014, 4.572, 0,        !- X,Y,Z Vertex 2 {m}
  -2.8421709430404e-014, 1.77635683940025e-015, 0, !- X,Y,Z Vertex 3 {m}
  -2.8421709430404e-014, 1.77635683940025e-015, 3.048; !- X,Y,Z Vertex 4 {m}

OS:Surface,
  {3992d962-a204-4ff8-bf6d-7da570cfaeb5}, !- Handle
  Surface 3,                              !- Name
  Wall,                                   !- Surface Type
  ,                                       !- Construction Name
  {ee7e3550-4fa8-4823-9888-90bdaed58601}, !- Space Name
  Surface,                                !- Outside Boundary Condition
  {5fb3d599-721e-48e0-b437-58d7b33ed957}, !- Outside Boundary Condition Object
  NoSun,                                  !- Sun Exposure
  NoWind,                                 !- Wind Exposure
  ,                                       !- View Factor to Ground
  ,                                       !- Number of Vertices
  4.57199999999997, 4.572, 3.048,         !- X,Y,Z Vertex 1 {m}
  4.57199999999997, 4.572, 0,             !- X,Y,Z Vertex 2 {m}
  -2.8421709430404e-014, 4.572, 0,        !- X,Y,Z Vertex 3 {m}
  -2.8421709430404e-014, 4.572, 3.048;    !- X,Y,Z Vertex 4 {m}

OS:Surface,
  {d49f93f2-390a-4422-baa9-976112b3e3d5}, !- Handle
  Surface 4,                              !- Name
  Wall,                                   !- Surface Type
  ,                                       !- Construction Name
  {ee7e3550-4fa8-4823-9888-90bdaed58601}, !- Space Name
  Surface,                                !- Outside Boundary Condition
  {984979a4-e284-404a-a889-d7c206d8e767}, !- Outside Boundary Condition Object
  NoSun,                                  !- Sun Exposure
  NoWind,                                 !- Wind Exposure
  ,                                       !- View Factor to Ground
  ,                                       !- Number of Vertices
  4.57199999999997, 1.77635683940025e-015, 3.048, !- X,Y,Z Vertex 1 {m}
  4.57199999999997, 1.77635683940025e-015, 0, !- X,Y,Z Vertex 2 {m}
  4.57199999999997, 4.572, 0,             !- X,Y,Z Vertex 3 {m}
  4.57199999999997, 4.572, 3.048;         !- X,Y,Z Vertex 4 {m}

OS:Surface,
  {705ee2c9-f55f-4ec0-9288-9458068cb260}, !- Handle
  Surface 5,                              !- Name
  Wall,                                   !- Surface Type
  ,                                       !- Construction Name
  {ee7e3550-4fa8-4823-9888-90bdaed58601}, !- Space Name
  Outdoors,                               !- Outside Boundary Condition
  ,                                       !- Outside Boundary Condition Object
  SunExposed,                             !- Sun Exposure
  WindExposed,                            !- Wind Exposure
  ,                                       !- View Factor to Ground
  ,                                       !- Number of Vertices
  -2.8421709430404e-014, 1.77635683940025e-015, 3.048, !- X,Y,Z Vertex 1 {m}
  -2.8421709430404e-014, 1.77635683940025e-015, 0, !- X,Y,Z Vertex 2 {m}
  4.57199999999997, 1.77635683940025e-015, 0, !- X,Y,Z Vertex 3 {m}
  4.57199999999997, 1.77635683940025e-015, 3.048; !- X,Y,Z Vertex 4 {m}

OS:Surface,
  {ad62f328-0b87-4554-9762-bb217581f3ea}, !- Handle
  Surface 6,                              !- Name
  RoofCeiling,                            !- Surface Type
  ,                                       !- Construction Name
  {ee7e3550-4fa8-4823-9888-90bdaed58601}, !- Space Name
  Adiabatic,                              !- Outside Boundary Condition
  ,                                       !- Outside Boundary Condition Object
  NoSun,                                  !- Sun Exposure
  NoWind,                                 !- Wind Exposure
  ,                                       !- View Factor to Ground
  ,                                       !- Number of Vertices
  4.57199999999997, 1.77635683940025e-015, 3.048, !- X,Y,Z Vertex 1 {m}
  4.57199999999997, 4.572, 3.048,         !- X,Y,Z Vertex 2 {m}
  -2.8421709430404e-014, 4.572, 3.048,    !- X,Y,Z Vertex 3 {m}
  -2.8421709430404e-014, 1.77635683940025e-015, 3.048; !- X,Y,Z Vertex 4 {m}

OS:ThermalZone,
  {9416ccb5-2397-4af8-a754-300423fc0fe7}, !- Handle
  Zone LargeHotel Banquet A end_a - Story Ground, !- Name
  1,                                      !- Multiplier
  ,                                       !- Ceiling Height {m}
  ,                                       !- Volume {m3}
  ,                                       !- Floor Area {m2}
  ,                                       !- Zone Inside Convection Algorithm
  ,                                       !- Zone Outside Convection Algorithm
  ,                                       !- Zone Conditioning Equipment List Name
  {f3ef09ad-4a53-490b-86d4-35d9b29001fd}, !- Zone Air Inlet Port List
  {1f7beeeb-71ba-41db-92ec-2d6b5298751e}, !- Zone Air Exhaust Port List
  {bd9279b0-5d1c-4a6d-8a3e-c154e32a54be}, !- Zone Air Node Name
  {89f8fe04-db6a-4c26-a6ca-32ffdba1f2e2}, !- Zone Return Air Port List
  ,                                       !- Primary Daylighting Control Name
  ,                                       !- Fraction of Zone Controlled by Primary Daylighting Control
  ,                                       !- Secondary Daylighting Control Name
  ,                                       !- Fraction of Zone Controlled by Secondary Daylighting Control
  ,                                       !- Illuminance Map Name
  ,                                       !- Group Rendering Name
  ,                                       !- Thermostat Name
  No;                                     !- Use Ideal Air Loads

OS:Node,
  {d46645c2-d3f6-41c2-aa6c-514f44784f11}, !- Handle
  Node 1,                                 !- Name
  {bd9279b0-5d1c-4a6d-8a3e-c154e32a54be}, !- Inlet Port
  ;                                       !- Outlet Port

OS:Connection,
  {bd9279b0-5d1c-4a6d-8a3e-c154e32a54be}, !- Handle
  {080532d0-aee4-4649-b508-479a3db7715b}, !- Name
  {9416ccb5-2397-4af8-a754-300423fc0fe7}, !- Source Object
  11,                                     !- Outlet Port
  {d46645c2-d3f6-41c2-aa6c-514f44784f11}, !- Target Object
  2;                                      !- Inlet Port

OS:PortList,
  {f3ef09ad-4a53-490b-86d4-35d9b29001fd}, !- Handle
  {868e00ef-3ba7-4b03-8644-042b34c4739a}, !- Name
  {9416ccb5-2397-4af8-a754-300423fc0fe7}; !- HVAC Component

OS:PortList,
  {1f7beeeb-71ba-41db-92ec-2d6b5298751e}, !- Handle
  {016a18e2-6c5d-4c65-a096-4d1fe6a826f3}, !- Name
  {9416ccb5-2397-4af8-a754-300423fc0fe7}; !- HVAC Component

OS:PortList,
  {89f8fe04-db6a-4c26-a6ca-32ffdba1f2e2}, !- Handle
  {9cf55f8e-ee3b-40fe-a3a0-1cd9f3c2ecec}, !- Name
  {9416ccb5-2397-4af8-a754-300423fc0fe7}; !- HVAC Component

OS:Sizing:Zone,
  {b4769cee-920f-45d0-95c9-d0fd42271942}, !- Handle
  {9416ccb5-2397-4af8-a754-300423fc0fe7}, !- Zone or ZoneList Name
  SupplyAirTemperature,                   !- Zone Cooling Design Supply Air Temperature Input Method
  14,                                     !- Zone Cooling Design Supply Air Temperature {C}
  11.11,                                  !- Zone Cooling Design Supply Air Temperature Difference {deltaC}
  SupplyAirTemperature,                   !- Zone Heating Design Supply Air Temperature Input Method
  40,                                     !- Zone Heating Design Supply Air Temperature {C}
  11.11,                                  !- Zone Heating Design Supply Air Temperature Difference {deltaC}
  0.0085,                                 !- Zone Cooling Design Supply Air Humidity Ratio {kg-H2O/kg-air}
  0.008,                                  !- Zone Heating Design Supply Air Humidity Ratio {kg-H2O/kg-air}
  ,                                       !- Zone Heating Sizing Factor
  ,                                       !- Zone Cooling Sizing Factor
  DesignDay,                              !- Cooling Design Air Flow Method
  ,                                       !- Cooling Design Air Flow Rate {m3/s}
  ,                                       !- Cooling Minimum Air Flow per Zone Floor Area {m3/s-m2}
  ,                                       !- Cooling Minimum Air Flow {m3/s}
  ,                                       !- Cooling Minimum Air Flow Fraction
  DesignDay,                              !- Heating Design Air Flow Method
  ,                                       !- Heating Design Air Flow Rate {m3/s}
  ,                                       !- Heating Maximum Air Flow per Zone Floor Area {m3/s-m2}
  ,                                       !- Heating Maximum Air Flow {m3/s}
  ,                                       !- Heating Maximum Air Flow Fraction
  ,                                       !- Design Zone Air Distribution Effectiveness in Cooling Mode
  ,                                       !- Design Zone Air Distribution Effectiveness in Heating Mode
  No,                                     !- Account for Dedicated Outdoor Air System
  NeutralSupplyAir,                       !- Dedicated Outdoor Air System Control Strategy
  autosize,                               !- Dedicated Outdoor Air Low Setpoint Temperature for Design {C}
  autosize;                               !- Dedicated Outdoor Air High Setpoint Temperature for Design {C}

OS:ZoneHVAC:EquipmentList,
  {4d85831b-b55a-4236-a24c-6f2c5d778c8c}, !- Handle
  Zone HVAC Equipment List 1,             !- Name
  {9416ccb5-2397-4af8-a754-300423fc0fe7}; !- Thermal Zone

OS:Space,
  {8d10f837-cc56-4287-a5a2-9b829ea585be}, !- Handle
  LargeHotel Banquet B end_a - Story Ground, !- Name
  {e7ed581c-a72d-40c8-b9b2-0fe3aec98be5}, !- Space Type Name
  ,                                       !- Default Construction Set Name
  ,                                       !- Default Schedule Set Name
  -0,                                     !- Direction of Relative North {deg}
  -29.3507163920623,                      !- X Origin {m}
  -1.18304242981613,                      !- Y Origin {m}
  0,                                      !- Z Origin {m}
  {c642f94b-6764-4bea-870b-b133b3e8aed7}, !- Building Story Name
  {06437417-a7c4-407a-8b32-a40d3ffdd4d1}; !- Thermal Zone Name

OS:Surface,
  {a211f12b-3243-41ca-a4b8-784ca9653a02}, !- Handle
  Surface 7,                              !- Name
  Floor,                                  !- Surface Type
  ,                                       !- Construction Name
  {8d10f837-cc56-4287-a5a2-9b829ea585be}, !- Space Name
  Ground,                                 !- Outside Boundary Condition
  ,                                       !- Outside Boundary Condition Object
  NoSun,                                  !- Sun Exposure
  NoWind,                                 !- Wind Exposure
  ,                                       !- View Factor to Ground
  ,                                       !- Number of Vertices
  -2.8421709430404e-014, 1.55431223447522e-015, 0, !- X,Y,Z Vertex 1 {m}
  -2.8421709430404e-014, 2.36608485963226, 0, !- X,Y,Z Vertex 2 {m}
  4.57199999999997, 2.36608485963226, 0,  !- X,Y,Z Vertex 3 {m}
  4.57199999999997, 1.55431223447522e-015, 0; !- X,Y,Z Vertex 4 {m}

OS:Surface,
  {69b7c17f-faae-4048-a970-75f390b44561}, !- Handle
  Surface 8,                              !- Name
  Wall,                                   !- Surface Type
  ,                                       !- Construction Name
  {8d10f837-cc56-4287-a5a2-9b829ea585be}, !- Space Name
  Outdoors,                               !- Outside Boundary Condition
  ,                                       !- Outside Boundary Condition Object
  SunExposed,                             !- Sun Exposure
  WindExposed,                            !- Wind Exposure
  ,                                       !- View Factor to Ground
  ,                                       !- Number of Vertices
  -2.8421709430404e-014, 2.36608485963226, 3.048, !- X,Y,Z Vertex 1 {m}
  -2.8421709430404e-014, 2.36608485963226, 0, !- X,Y,Z Vertex 2 {m}
  -2.8421709430404e-014, 1.55431223447522e-015, 0, !- X,Y,Z Vertex 3 {m}
  -2.8421709430404e-014, 1.55431223447522e-015, 3.048; !- X,Y,Z Vertex 4 {m}

OS:Surface,
  {2dcd011f-9bb5-4b0e-bfce-c71bec70ecc2}, !- Handle
  Surface 9,                              !- Name
  Wall,                                   !- Surface Type
  ,                                       !- Construction Name
  {8d10f837-cc56-4287-a5a2-9b829ea585be}, !- Space Name
  Surface,                                !- Outside Boundary Condition
  {146585ce-9a81-42a9-8f8b-ec33532ea66d}, !- Outside Boundary Condition Object
  NoSun,                                  !- Sun Exposure
  NoWind,                                 !- Wind Exposure
  ,                                       !- View Factor to Ground
  ,                                       !- Number of Vertices
  4.57199999999997, 2.36608485963226, 3.048, !- X,Y,Z Vertex 1 {m}
  4.57199999999997, 2.36608485963226, 0,  !- X,Y,Z Vertex 2 {m}
  -2.8421709430404e-014, 2.36608485963226, 0, !- X,Y,Z Vertex 3 {m}
  -2.8421709430404e-014, 2.36608485963226, 3.048; !- X,Y,Z Vertex 4 {m}

OS:Surface,
  {a658811a-94a8-46d6-b014-2cd1d6eec5c3}, !- Handle
  Surface 10,                             !- Name
  Wall,                                   !- Surface Type
  ,                                       !- Construction Name
  {8d10f837-cc56-4287-a5a2-9b829ea585be}, !- Space Name
  Surface,                                !- Outside Boundary Condition
  {8a621a99-31dc-46f5-8a18-a8223e0c394d}, !- Outside Boundary Condition Object
  NoSun,                                  !- Sun Exposure
  NoWind,                                 !- Wind Exposure
  ,                                       !- View Factor to Ground
  ,                                       !- Number of Vertices
  4.57199999999997, 1.55431223447522e-015, 3.048, !- X,Y,Z Vertex 1 {m}
  4.57199999999997, 1.55431223447522e-015, 0, !- X,Y,Z Vertex 2 {m}
  4.57199999999997, 2.36608485963226, 0,  !- X,Y,Z Vertex 3 {m}
  4.57199999999997, 2.36608485963226, 3.048; !- X,Y,Z Vertex 4 {m}

OS:Surface,
  {5fb3d599-721e-48e0-b437-58d7b33ed957}, !- Handle
  Surface 11,                             !- Name
  Wall,                                   !- Surface Type
  ,                                       !- Construction Name
  {8d10f837-cc56-4287-a5a2-9b829ea585be}, !- Space Name
  Surface,                                !- Outside Boundary Condition
  {3992d962-a204-4ff8-bf6d-7da570cfaeb5}, !- Outside Boundary Condition Object
  NoSun,                                  !- Sun Exposure
  NoWind,                                 !- Wind Exposure
  ,                                       !- View Factor to Ground
  ,                                       !- Number of Vertices
  -2.8421709430404e-014, 1.55431223447522e-015, 3.048, !- X,Y,Z Vertex 1 {m}
  -2.8421709430404e-014, 1.55431223447522e-015, 0, !- X,Y,Z Vertex 2 {m}
  4.57199999999997, 1.55431223447522e-015, 0, !- X,Y,Z Vertex 3 {m}
  4.57199999999997, 1.55431223447522e-015, 3.048; !- X,Y,Z Vertex 4 {m}

OS:Surface,
  {4778c009-cf7f-4009-9b30-24b9f84ce145}, !- Handle
  Surface 12,                             !- Name
  RoofCeiling,                            !- Surface Type
  ,                                       !- Construction Name
  {8d10f837-cc56-4287-a5a2-9b829ea585be}, !- Space Name
  Adiabatic,                              !- Outside Boundary Condition
  ,                                       !- Outside Boundary Condition Object
  NoSun,                                  !- Sun Exposure
  NoWind,                                 !- Wind Exposure
  ,                                       !- View Factor to Ground
  ,                                       !- Number of Vertices
  4.57199999999997, 1.55431223447522e-015, 3.048, !- X,Y,Z Vertex 1 {m}
  4.57199999999997, 2.36608485963226, 3.048, !- X,Y,Z Vertex 2 {m}
  -2.8421709430404e-014, 2.36608485963226, 3.048, !- X,Y,Z Vertex 3 {m}
  -2.8421709430404e-014, 1.55431223447522e-015, 3.048; !- X,Y,Z Vertex 4 {m}

OS:ThermalZone,
  {06437417-a7c4-407a-8b32-a40d3ffdd4d1}, !- Handle
  Zone LargeHotel Banquet B end_a - Story Ground, !- Name
  1,                                      !- Multiplier
  ,                                       !- Ceiling Height {m}
  ,                                       !- Volume {m3}
  ,                                       !- Floor Area {m2}
  ,                                       !- Zone Inside Convection Algorithm
  ,                                       !- Zone Outside Convection Algorithm
  ,                                       !- Zone Conditioning Equipment List Name
  {12a249fd-4d78-4fb0-9e8a-a31b7b0ddc20}, !- Zone Air Inlet Port List