
OS:Version,
  {2daae075-2845-4c27-8af6-1cb598fd5b11}, !- Handle
  2.7.2;                                  !- Version Identifier

OS:SpaceType,
  {a72521f8-c633-44ba-bf99-b54eba23116b}, !- Handle
  Office WholeBuilding - Sm Office,       !- Name
  ,                                       !- Default Construction Set Name
  ,                                       !- Default Schedule Set Name
  {ba8b1d3b-605a-46cd-b74d-0309f00f592b}, !- Group Rendering Name
  ,                                       !- Design Specification Outdoor Air Object Name
  ,                                       !- Standards Template
  Office,                                 !- Standards Building Type
  WholeBuilding - Sm Office;              !- Standards Space Type

OS:Rendering:Color,
  {ba8b1d3b-605a-46cd-b74d-0309f00f592b}, !- Handle
  Office WholeBuilding - Sm Office,       !- Name
  120,                                    !- Rendering Red Value
  230,                                    !- Rendering Green Value
  199;                                    !- Rendering Blue Value

OS:Building,
  {5df3b56a-11de-44a3-bede-316144d420d6}, !- Handle
  90.1-2004|SmallOffice,                  !- Name
  ,                                       !- Building Sector Type
  ,                                       !- North Axis {deg}
  ,                                       !- Nominal Floor to Floor Height {m}
  {a72521f8-c633-44ba-bf99-b54eba23116b}, !- Space Type Name
  ,                                       !- Default Construction Set Name
  ;                                       !- Default Schedule Set Name

OS:Site,
  {d8ed70cd-e406-4011-a3d7-11934372ae62}, !- Handle
  Site 1,                                 !- Name
  ,                                       !- Latitude {deg}
  ,                                       !- Longitude {deg}
  ,                                       !- Time Zone {hr}
  ,                                       !- Elevation {m}
  ;                                       !- Terrain

OS:BuildingStory,
  {d1614740-0430-4e52-95e5-8087f55457b0}, !- Handle
  Story Ground,                           !- Name
  0,                                      !- Nominal Z Coordinate {m}
  3.048,                                  !- Nominal Floor to Floor Height {m}
  ,                                       !- Default Construction Set Name
  ,                                       !- Default Schedule Set Name
  ;                                       !- Group Rendering Name

OS:Space,
  {540b08af-1bee-4020-abe3-6d4559e3d2a0}, !- Handle
  West Perimeter Space - Story Ground,    !- Name
  ,                                       !- Space Type Name
  ,                                       !- Default Construction Set Name
  ,                                       !- Default Schedule Set Name
  -0,                                     !- Direction of Relative North {deg}
  -17.7964858635324,                      !- X Origin {m}
  -11.8643239090216,                      !- Y Origin {m}
  0,                                      !- Z Origin {m}
  {d1614740-0430-4e52-95e5-8087f55457b0}, !- Building Story Name
  {852dc094-2f3b-4d77-8c17-1ccde9d1367b}; !- Thermal Zone Name

OS:Surface,
  {2d127d2d-d3cf-446b-a8f9-c91f4e8e2bf0}, !- Handle
  Surface 1,                              !- Name
  Floor,                                  !- Surface Type
  ,                                       !- Construction Name
  {540b08af-1bee-4020-abe3-6d4559e3d2a0}, !- Space Name
  Ground,                                 !- Outside Boundary Condition
  ,                                       !- Outside Boundary Condition Object
  NoSun,                                  !- Sun Exposure
  NoWind,                                 !- Wind Exposure
  ,                                       !- View Factor to Ground
  ,                                       !- Number of Vertices
  1.77635683940025e-014, 8.88178419700125e-015, 0, !- X,Y,Z Vertex 1 {m}
  1.77635683940025e-014, 23.7286478180432, 0, !- X,Y,Z Vertex 2 {m}
  4.57200000000002, 19.1566478180432, 0,  !- X,Y,Z Vertex 3 {m}
  4.57200000000002, 4.572, 0;             !- X,Y,Z Vertex 4 {m}

OS:Surface,
  {80208011-07e3-4934-90a8-0d7f62f5707f}, !- Handle
  Surface 2,                              !- Name
  Wall,                                   !- Surface Type
  ,                                       !- Construction Name
  {540b08af-1bee-4020-abe3-6d4559e3d2a0}, !- Space Name
  Outdoors,                               !- Outside Boundary Condition
  ,                                       !- Outside Boundary Condition Object
  SunExposed,                             !- Sun Exposure
  WindExposed,                            !- Wind Exposure
  ,                                       !- View Factor to Ground
  ,                                       !- Number of Vertices
  1.77635683940025e-014, 23.7286478180432, 3.048, !- X,Y,Z Vertex 1 {m}
  1.77635683940025e-014, 23.7286478180432, 0, !- X,Y,Z Vertex 2 {m}
  1.77635683940025e-014, 8.88178419700125e-015, 0, !- X,Y,Z Vertex 3 {m}
  1.77635683940025e-014, 8.88178419700125e-015, 3.048; !- X,Y,Z Vertex 4 {m}

OS:Surface,
  {90eef718-41b5-48c4-878c-6a1cb3740abc}, !- Handle
  Surface 3,                              !- Name
  Wall,                                   !- Surface Type
  ,                                       !- Construction Name
  {540b08af-1bee-4020-abe3-6d4559e3d2a0}, !- Space Name
  Surface,                                !- Outside Boundary Condition
  {2c1eab28-617a-425f-bbe8-c5b4de832dc2}, !- Outside Boundary Condition Object
  NoSun,                                  !- Sun Exposure
  NoWind,                                 !- Wind Exposure
  ,                                       !- View Factor to Ground
  ,                                       !- Number of Vertices
  4.57200000000002, 19.1566478180432, 3.048, !- X,Y,Z Vertex 1 {m}
  4.57200000000002, 19.1566478180432, 0,  !- X,Y,Z Vertex 2 {m}
  1.77635683940025e-014, 23.7286478180432, 0, !- X,Y,Z Vertex 3 {m}
  1.77635683940025e-014, 23.7286478180432, 3.048; !- X,Y,Z Vertex 4 {m}

OS:Surface,
  {6b491ad2-a52d-42e4-82e3-d9a81df1f6c9}, !- Handle
  Surface 4,                              !- Name
  Wall,                                   !- Surface Type
  ,                                       !- Construction Name
  {540b08af-1bee-4020-abe3-6d4559e3d2a0}, !- Space Name
  Surface,                                !- Outside Boundary Condition
  {724cb697-2e58-4191-95ed-2eaaf3ebace6}, !- Outside Boundary Condition Object
  NoSun,                                  !- Sun Exposure
  NoWind,                                 !- Wind Exposure
  ,                                       !- View Factor to Ground
  ,                                       !- Number of Vertices
  4.57200000000002, 4.572, 3.048,         !- X,Y,Z Vertex 1 {m}
  4.57200000000002, 4.572, 0,             !- X,Y,Z Vertex 2 {m}
  4.57200000000002, 19.1566478180432, 0,  !- X,Y,Z Vertex 3 {m}
  4.57200000000002, 19.1566478180432, 3.048; !- X,Y,Z Vertex 4 {m}

OS:Surface,
  {dd3e50b1-72c7-447a-920c-4f85a1c93478}, !- Handle
  Surface 5,                              !- Name
  Wall,                                   !- Surface Type
  ,                                       !- Construction Name
  {540b08af-1bee-4020-abe3-6d4559e3d2a0}, !- Space Name
  Surface,                                !- Outside Boundary Condition
  {a575f3ad-ce22-49f2-a05e-3fbc5ae9849d}, !- Outside Boundary Condition Object
  NoSun,                                  !- Sun Exposure
  NoWind,                                 !- Wind Exposure
  ,                                       !- View Factor to Ground
  ,                                       !- Number of Vertices
  1.77635683940025e-014, 8.88178419700125e-015, 3.048, !- X,Y,Z Vertex 1 {m}
  1.77635683940025e-014, 8.88178419700125e-015, 0, !- X,Y,Z Vertex 2 {m}
  4.57200000000002, 4.572, 0,             !- X,Y,Z Vertex 3 {m}
  4.57200000000002, 4.572, 3.048;         !- X,Y,Z Vertex 4 {m}

OS:Surface,
  {14c59c68-3f97-4169-9021-453c8a204941}, !- Handle
  Surface 6,                              !- Name
  RoofCeiling,                            !- Surface Type
  ,                                       !- Construction Name
  {540b08af-1bee-4020-abe3-6d4559e3d2a0}, !- Space Name
  Adiabatic,                              !- Outside Boundary Condition
  ,                                       !- Outside Boundary Condition Object
  NoSun,                                  !- Sun Exposure
  NoWind,                                 !- Wind Exposure
  ,                                       !- View Factor to Ground
  ,                                       !- Number of Vertices
  4.57200000000002, 4.572, 3.048,         !- X,Y,Z Vertex 1 {m}
  4.57200000000002, 19.1566478180432, 3.048, !- X,Y,Z Vertex 2 {m}
  1.77635683940025e-014, 23.7286478180432, 3.048, !- X,Y,Z Vertex 3 {m}
  1.77635683940025e-014, 8.88178419700125e-015, 3.048; !- X,Y,Z Vertex 4 {m}

OS:ThermalZone,
  {852dc094-2f3b-4d77-8c17-1ccde9d1367b}, !- Handle
  Zone West Perimeter Space - Story Ground, !- Name
  1,                                      !- Multiplier
  ,                                       !- Ceiling Height {m}
  ,                                       !- Volume {m3}
  ,                                       !- Floor Area {m2}
  ,                                       !- Zone Inside Convection Algorithm
  ,                                       !- Zone Outside Convection Algorithm
  ,                                       !- Zone Conditioning Equipment List Name
  {60b7a17e-42c2-463c-bf4c-c7687b8cb04e}, !- Zone Air Inlet Port List
  {24b83bf6-2585-4652-b631-fa30e63ba2a5}, !- Zone Air Exhaust Port List
  {539fc9e3-4e2d-466a-b49a-c2d1cb409e9e}, !- Zone Air Node Name
  {52abdbcf-8e35-491c-8557-89f28ddc7519}, !- Zone Return Air Port List
  ,                                       !- Primary Daylighting Control Name
  ,                                       !- Fraction of Zone Controlled by Primary Daylighting Control
  ,                                       !- Secondary Daylighting Control Name
  ,                                       !- Fraction of Zone Controlled by Secondary Daylighting Control
  ,                                       !- Illuminance Map Name
  ,                                       !- Group Rendering Name
  ,                                       !- Thermostat Name
  No;                                     !- Use Ideal Air Loads

OS:Node,
  {1803d68d-aa59-4e13-9fd7-81725755e08b}, !- Handle
  Node 1,                                 !- Name
  {539fc9e3-4e2d-466a-b49a-c2d1cb409e9e}, !- Inlet Port
  ;                                       !- Outlet Port

OS:Connection,
  {539fc9e3-4e2d-466a-b49a-c2d1cb409e9e}, !- Handle
  {99f98b40-5a64-483a-a51c-4f88ea690956}, !- Name
  {852dc094-2f3b-4d77-8c17-1ccde9d1367b}, !- Source Object
  11,                                     !- Outlet Port
  {1803d68d-aa59-4e13-9fd7-81725755e08b}, !- Target Object
  2;                                      !- Inlet Port

OS:PortList,
  {60b7a17e-42c2-463c-bf4c-c7687b8cb04e}, !- Handle
  {c2fb73a1-d3ba-41e0-b605-ae69438032d3}, !- Name
  {852dc094-2f3b-4d77-8c17-1ccde9d1367b}; !- HVAC Component

OS:PortList,
  {24b83bf6-2585-4652-b631-fa30e63ba2a5}, !- Handle
  {fbba3336-8676-40c9-b3f9-bc5648d33160}, !- Name
  {852dc094-2f3b-4d77-8c17-1ccde9d1367b}; !- HVAC Component

OS:PortList,
  {52abdbcf-8e35-491c-8557-89f28ddc7519}, !- Handle
  {4b3529a1-3298-4940-a1b6-bf44c0042b1f}, !- Name
  {852dc094-2f3b-4d77-8c17-1ccde9d1367b}; !- HVAC Component

OS:Sizing:Zone,
  {debb2def-991f-449e-bf12-063fcb4aa57c}, !- Handle
  {852dc094-2f3b-4d77-8c17-1ccde9d1367b}, !- Zone or ZoneList Name
  SupplyAirTemperature,                   !- Zone Cooling Design Supply Air Temperature Input Method
  14,                                     !- Zone Cooling Design Supply Air Temperature {C}
  11.11,                                  !- Zone Cooling Design Supply Air Temperature Difference {deltaC}
  SupplyAirTemperature,                   !- Zone Heating Design Supply Air Temperature Input Method
  40,                                     !- Zone Heating Design Supply Air Temperature {C}
  11.11,                                  !- Zone Heating Design Supply Air Temperature Difference {deltaC}
  0.0085,                                 !- Zone Cooling Design Supply Air Humidity Ratio {kg-H2O/kg-air}
  0.008,                                  !- Zone Heating Design Supply Air Humidity Ratio {kg-H2O/kg-air}
  ,                                       !- Zone Heating Sizing Factor
  ,                                       !- Zone Cooling Sizing Factor
  DesignDay,                              !- Cooling Design Air Flow Method
  ,                                       !- Cooling Design Air Flow Rate {m3/s}
  ,                                       !- Cooling Minimum Air Flow per Zone Floor Area {m3/s-m2}
  ,                                       !- Cooling Minimum Air Flow {m3/s}
  ,                                       !- Cooling Minimum Air Flow Fraction
  DesignDay,                              !- Heating Design Air Flow Method
  ,                                       !- Heating Design Air Flow Rate {m3/s}
  ,                                       !- Heating Maximum Air Flow per Zone Floor Area {m3/s-m2}
  ,                                       !- Heating Maximum Air Flow {m3/s}
  ,                                       !- Heating Maximum Air Flow Fraction
  ,                                       !- Design Zone Air Distribution Effectiveness in Cooling Mode
  ,                                       !- Design Zone Air Distribution Effectiveness in Heating Mode
  No,                                     !- Account for Dedicated Outdoor Air System
  NeutralSupplyAir,                       !- Dedicated Outdoor Air System Control Strategy
  autosize,                               !- Dedicated Outdoor Air Low Setpoint Temperature for Design {C}
  autosize;                               !- Dedicated Outdoor Air High Setpoint Temperature for Design {C}

OS:ZoneHVAC:EquipmentList,
  {e88a572a-879f-4996-9df0-a2b3c6966c1e}, !- Handle
  Zone HVAC Equipment List 1,             !- Name
  {852dc094-2f3b-4d77-8c17-1ccde9d1367b}; !- Thermal Zone

OS:Space,
  {a4329dbe-ea4f-4184-aa16-7817079baa65}, !- Handle
  North Perimeter Space - Story Ground,   !- Name
  ,                                       !- Space Type Name
  ,                                       !- Default Construction Set Name
  ,                                       !- Default Schedule Set Name
  -0,                                     !- Direction of Relative North {deg}
  -17.7964858635324,                      !- X Origin {m}
  11.8643239090216,                       !- Y Origin {m}
  0,                                      !- Z Origin {m}
  {d1614740-0430-4e52-95e5-8087f55457b0}, !- Building Story Name
  {44ad6985-15f5-474b-8d09-6856a5077e7d}; !- Thermal Zone Name

OS:Surface,
  {31fa8ce3-316d-4171-81ea-9b120e71bc47}, !- Handle
  Surface 7,                              !- Name
  Floor,                                  !- Surface Type
  ,                                       !- Construction Name
  {a4329dbe-ea4f-4184-aa16-7817079baa65}, !- Space Name
  Ground,                                 !- Outside Boundary Condition
  ,                                       !- Outside Boundary Condition Object
  NoSun,                                  !- Sun Exposure
  NoWind,                                 !- Wind Exposure
  ,                                       !- View Factor to Ground
  ,                                       !- Number of Vertices
  1.77635683940025e-014, -8.88178419700125e-015, 0, !- X,Y,Z Vertex 1 {m}
  35.5929717270648, -8.88178419700125e-015, 0, !- X,Y,Z Vertex 2 {m}
  31.0209717270648, -4.572, 0,            !- X,Y,Z Vertex 3 {m}
  4.57200000000002, -4.572, 0;            !- X,Y,Z Vertex 4 {m}

OS:Surface,
  {92553d90-2ff1-4c89-8c47-d330762688cb}, !- Handle
  Surface 8,                              !- Name
  Wall,                                   !- Surface Type
  ,                                       !- Construction Name
  {a4329dbe-ea4f-4184-aa16-7817079baa65}, !- Space Name
  Outdoors,                               !- Outside Boundary Condition
  ,                                       !- Outside Boundary Condition Object
  SunExposed,                             !- Sun Exposure
  WindExposed,                            !- Wind Exposure
  ,                                       !- View Factor to Ground
  ,                                       !- Number of Vertices
  35.5929717270648, -8.88178419700125e-015, 3.048, !- X,Y,Z Vertex 1 {m}
  35.5929717270648, -8.88178419700125e-015, 0, !- X,Y,Z Vertex 2 {m}
  1.77635683940025e-014, -8.88178419700125e-015, 0, !- X,Y,Z Vertex 3 {m}
  1.77635683940025e-014, -8.88178419700125e-015, 3.048; !- X,Y,Z Vertex 4 {m}

OS:Surface,
  {78132a3b-be44-462a-976a-3a49b074b60e}, !- Handle
  Surface 9,                              !- Name
  Wall,                                   !- Surface Type
  ,                                       !- Construction Name
  {a4329dbe-ea4f-4184-aa16-7817079baa65}, !- Space Name
  Surface,                                !- Outside Boundary Condition
  {2f910499-b721-4933-bd7d-6229cdc60a57}, !- Outside Boundary Condition Object
  NoSun,                                  !- Sun Exposure
  NoWind,                                 !- Wind Exposure
  ,                                       !- View Factor to Ground
  ,                                       !- Number of Vertices
  31.0209717270648, -4.572, 3.048,        !- X,Y,Z Vertex 1 {m}
  31.0209717270648, -4.572, 0,            !- X,Y,Z Vertex 2 {m}
  35.5929717270648, -8.88178419700125e-015, 0, !- X,Y,Z Vertex 3 {m}
  35.5929717270648, -8.88178419700125e-015, 3.048; !- X,Y,Z Vertex 4 {m}

OS:Surface,
  {27f7ebc5-8b64-451b-b606-5265a97e353f}, !- Handle
  Surface 10,                             !- Name
  Wall,                                   !- Surface Type
  ,                                       !- Construction Name
  {a4329dbe-ea4f-4184-aa16-7817079baa65}, !- Space Name
  Surface,                                !- Outside Boundary Condition
  {60748db8-65bd-40f6-bd2c-95eb68399bf3}, !- Outside Boundary Condition Object
  NoSun,                                  !- Sun Exposure
  NoWind,                                 !- Wind Exposure
  ,                                       !- View Factor to Ground
  ,                                       !- Number of Vertices
  4.57200000000002, -4.572, 3.048,        !- X,Y,Z Vertex 1 {m}
  4.57200000000002, -4.572, 0,            !- X,Y,Z Vertex 2 {m}
  31.0209717270648, -4.572, 0,            !- X,Y,Z Vertex 3 {m}
  31.0209717270648, -4.572, 3.048;        !- X,Y,Z Vertex 4 {m}

OS:Surface,
  {2c1eab28-617a-425f-bbe8-c5b4de832dc2}, !- Handle
  Surface 11,                             !- Name
  Wall,                                   !- Surface Type
  ,                                       !- Construction Name
  {a4329dbe-ea4f-4184-aa16-7817079baa65}, !- Space Name
  Surface,                                !- Outside Boundary Condition
  {90eef718-41b5-48c4-878c-6a1cb3740abc}, !- Outside Boundary Condition Object
  NoSun,                                  !- Sun Exposure
  NoWind,                                 !- Wind Exposure
  ,                                       !- View Factor to Ground
  ,                                       !- Number of Vertices
  1.77635683940025e-014, -8.88178419700125e-015, 3.048, !- X,Y,Z Vertex 1 {m}
  1.77635683940025e-014, -8.88178419700125e-015, 0, !- X,Y,Z Vertex 2 {m}
  4.57200000000002, -4.572, 0,            !- X,Y,Z Vertex 3 {m}
  4.57200000000002, -4.572, 3.048;        !- X,Y,Z Vertex 4 {m}

OS:Surface,
  {f5e8d799-6ab0-4c53-af2e-25fac9b030cd}, !- Handle
  Surface 12,                             !- Name
  RoofCeiling,                            !- Surface Type
  ,                                       !- Construction Name
  {a4329dbe-ea4f-4184-aa16-7817079baa65}, !- Space Name
  Adiabatic,                              !- Outside Boundary Condition
  ,                                       !- Outside Boundary Condition Object
  NoSun,                                  !- Sun Exposure
  NoWind,                                 !- Wind Exposure
  ,                                       !- View Factor to Ground
  ,                                       !- Number of Vertices
  4.57200000000002, -4.572, 3.048,        !- X,Y,Z Vertex 1 {m}
  31.0209717270648, -4.572, 3.048,        !- X,Y,Z Vertex 2 {m}
  35.5929717270648, -8.88178419700125e-015, 3.048, !- X,Y,Z Vertex 3 {m}
  1.77635683940025e-014, -8.88178419700125e-015, 3.048; !- X,Y,Z Vertex 4 {m}

OS:ThermalZone,
  {44ad6985-15f5-474b-8d09-6856a5077e7d}, !- Handle
  Zone North Perimeter Space - Story Ground, !- Name
  1,                                      !- Multiplier
  ,                                       !- Ceiling Height {m}
  ,                                       !- Volume {m3}
  ,                                       !- Floor Area {m2}
  ,                                       !- Zone Inside Convection Algorithm
  ,                                       !- Zone Outside Convection Algorithm
  ,                                       !- Zone Conditioning Equipment List Name
  {b7062a6a-d063-4393-8d37-f67159113522}, !- Zone Air Inlet Port List
  {c089a07c-c659-4877-b620-836da8387795}, !- Zone Air Exhaust Port List
  {ff86b084-aa85-4c9f-bade-30beba128d48}, !- Zone Air Node Name
  {86fb21e4-afbe-4835-8605-59cf9a6acb0f}, !- Zone Return Air Port List
  ,                                       !- Primary Daylighting Control Name
  ,                                       !- Fraction of Zone Controlled by Primary Daylighting Control
  ,                                       !- Secondary Daylighting Control Name
  ,                                       !- Fraction of Zone Controlled by Secondary Daylighting Control
  ,                                       !- Illuminance Map Name
  ,                                       !- Group Rendering Name
  ,                                       !- Thermostat Name
  No;                                     !- Use Ideal Air Loads

OS:Node,
  {5a4ee960-dd93-4096-b608-13e3fabc7270}, !- Handle
  Node 2,                                 !- Name
  {ff86b084-aa85-4c9f-bade-30beba128d48}, !- Inlet Port
  ;                                       !- Outlet Port

OS:Connection,
  {ff86b084-aa85-4c9f-bade-30beba128d48}, !- Handle
  {c3efe09a-0a8f-4f71-a31f-f6023e1b8d33}, !- Name
  {44ad6985-15f5-474b-8d09-6856a5077e7d}, !- Source Object
  11,                                     !- Outlet Port
  {5a4ee960-dd93-4096-b608-13e3fabc7270}, !- Target Object
  2;                                      !- Inlet Port

OS:PortList,
  {b7062a6a-d063-4393-8d37-f67159113522}, !- Handle
  {9703910b-a8c1-4b5a-afd5-873075f8330b}, !- Name
  {44ad6985-15f5-474b-8d09-6856a5077e7d}; !- HVAC Component

OS:PortList,
  {c089a07c-c659-4877-b620-836da8387795}, !- Handle
  {94b42353-8d0d-4487-b258-96908b5ff867}, !- Name
  {44ad6985-15f5-474b-8d09-6856a5077e7d}; !- HVAC Component

OS:PortList,
  {86fb21e4-afbe-4835-8605-59cf9a6acb0f}, !- Handle
  {6ec132d6-1054-43aa-bfdc-8a256c3b194c}, !- Name
  {44ad6985-15f5-474b-8d09-6856a5077e7d}; !- HVAC Component

OS:Sizing:Zone,
  {1a26f062-d342-4152-bcab-8c30c62e7160}, !- Handle
  {44ad6985-15f5-474b-8d09-6856a5077e7d}, !- Zone or ZoneList Name
  SupplyAirTemperature,                   !- Zone Cooling Design Supply Air Temperature Input Method
  14,                                     !- Zone Cooling Design Supply Air Temperature {C}
  11.11,                                  !- Zone Cooling Design Supply Air Temperature Difference {deltaC}
  SupplyAirTemperature,                   !- Zone Heating Design Supply Air Temperature Input Method
  40,                                     !- Zone Heating Design Supply Air Temperature {C}
  11.11,                                  !- Zone Heating Design Supply Air Temperature Difference {deltaC}
  0.0085,                                 !- Zone Cooling Design Supply Air Humidity Ratio {kg-H2O/kg-air}
  0.008,                                  !- Zone Heating Design Supply Air Humidity Ratio {kg-H2O/kg-air}
  ,                                       !- Zone Heating Sizing Factor
  ,                                       !- Zone Cooling Sizing Factor
  DesignDay,                              !- Cooling Design Air Flow Method
  ,                                       !- Cooling Design Air Flow Rate {m3/s}
  ,                                       !- Cooling Minimum Air Flow per Zone Floor Area {m3/s-m2}
  ,                                       !- Cooling Minimum Air Flow {m3/s}
  ,                                       !- Cooling Minimum Air Flow Fraction
  DesignDay,                              !- Heating Design Air Flow Method
  ,                                       !- Heating Design Air Flow Rate {m3/s}
  ,                                       !- Heating Maximum Air Flow per Zone Floor Area {m3/s-m2}
  ,                                       !- Heating Maximum Air Flow {m3/s}
  ,                                       !- Heating Maximum Air Flow Fraction
  ,                                       !- Design Zone Air Distribution Effectiveness in Cooling Mode
  ,                                       !- Design Zone Air Distribution Effectiveness in Heating Mode
  No,                                     !- Account for Dedicated Outdoor Air System
  NeutralSupplyAir,                       !- Dedicated Outdoor Air System Control Strategy
  autosize,                               !- Dedicated Outdoor Air Low Setpoint Temperature for Design {C}
  autosize;                               !- Dedicated Outdoor Air High Setpoint Temperature for Design {C}

OS:ZoneHVAC:EquipmentList,
  {80f9a192-1d92-4cd1-992e-458f7c131f05}, !- Handle
  Zone HVAC Equipment List 2,             !- Name
  {44ad6985-15f5-474b-8d09-6856a5077e7d}; !- Thermal Zone

OS:Space,
  {4ee343a5-8ba1-49c0-a495-c09480ce23d3}, !- Handle
  East Perimeter Space - Story Ground,    !- Name
  ,                                       !- Space Type Name
  ,                                       !- Default Construction Set Name
  ,                                       !- Default Schedule Set Name
  -0,                                     !- Direction of Relative North {deg}
  17.7964858635324,                       !- X Origin {m}
  11.8643239090216,                       !- Y Origin {m}
  0,                                      !- Z Origin {m}
  {d1614740-0430-4e52-95e5-8087f55457b0}, !- Building Story Name
  {69a0d873-f833-40d3-9bd4-8dd106ef02c1}; !- Thermal Zone Name

OS:Surface,
  {8e447e36-85fb-4ed5-84d0-82c385af7f74}, !- Handle
  Surface 13,                             !- Name
  Floor,                                  !- Surface Type
  ,                                       !- Construction Name
  {4ee343a5-8ba1-49c0-a495-c09480ce23d3}, !- Space Name
  Ground,                                 !- Outside Boundary Condition
  ,                                       !- Outside Boundary Condition Object
  NoSun,                                  !- Sun Exposure
  NoWind,                                 !- Wind Exposure
  ,                                       !- View Factor to Ground
  ,                                       !- Number of Vertices
  -1.77635683940025e-014, -8.88178419700125e-015, 0, !- X,Y,Z Vertex 1 {m}
  -1.77635683940025e-014, -23.7286478180432, 0, !- X,Y,Z Vertex 2 {m}
  -4.57200000000002, -19.1566478180432, 0, !- X,Y,Z Vertex 3 {m}
  -4.57200000000002, -4.572, 0;           !- X,Y,Z Vertex 4 {m}

OS:Surface,
  {9bc185e9-92b6-4684-ba6f-bce7f6b891ac}, !- Handle
  Surface 14,                             !- Name
  Wall,                                   !- Surface Type
  ,                                       !- Construction Name
  {4ee343a5-8ba1-49c0-a495-c09480ce23d3}, !- Space Name
  Outdoors,                               !- Outside Boundary Condition
  ,                                       !- Outside Boundary Condition Object
  SunExposed,                             !- Sun Exposure
  WindExposed,                            !- Wind Exposure
  ,                                       !- View Factor to Ground
  ,                                       !- Number of Vertices
  -1.77635683940025e-014, -23.7286478180432, 3.048, !- X,Y,Z Vertex 1 {m}
  -1.77635683940025e-014, -23.7286478180432, 0, !- X,Y,Z Vertex 2 {m}
  -1.77635683940025e-014, -8.88178419700125e-015, 0, !- X,Y,Z Vertex 3 {m}
  -1.77635683940025e-014, -8.88178419700125e-015, 3.048; !- X,Y,Z Vertex 4 {m}

OS:Surface,
  {fcaa0fef-c969-4577-b005-1504d2609f59}, !- Handle
  Surface 15,                             !- Name
  Wall,                                   !- Surface Type
  ,                                       !- Construction Name
  {4ee343a5-8ba1-49c0-a495-c09480ce23d3}, !- Space Name
  Surface,                                !- Outside Boundary Condition
  {13b54de9-e771-4cf5-9471-6199f130b07e}, !- Outside Boundary Condition Object
  NoSun,                                  !- Sun Exposure
  NoWind,                                 !- Wind Exposure
  ,                                       !- View Factor to Ground
  ,                                       !- Number of Vertices
  -4.57200000000002, -19.1566478180432, 3.048, !- X,Y,Z Vertex 1 {m}
  -4.57200000000002, -19.1566478180432, 0, !- X,Y,Z Vertex 2 {m}
  -1.77635683940025e-014, -23.7286478180432, 0, !- X,Y,Z Vertex 3 {m}
  -1.77635683940025e-014, -23.7286478180432, 3.048; !- X,Y,Z Vertex 4 {m}

OS:Surface,
  {036190f9-20da-4c97-af23-7a335c644521}, !- Handle
  Surface 16,                             !- Name
  Wall,                                   !- Surface Type
  ,                                       !- Construction Name