
OS:Version,
  {c165036e-46b6-4f0e-90eb-513b66f2797e}, !- Handle
  2.7.2;                                  !- Version Identifier

OS:SpaceType,
  {3012ede0-24ad-40d1-a474-2e6f97b4da2b}, !- Handle
  MidriseApartment Apartment,             !- Name
  ,                                       !- Default Construction Set Name
  ,                                       !- Default Schedule Set Name
  {ddfb6d14-a67b-4b04-97ae-78e4b8a7b8ef}, !- Group Rendering Name
  ,                                       !- Design Specification Outdoor Air Object Name
  ,                                       !- Standards Template
  MidriseApartment,                       !- Standards Building Type
  Apartment;                              !- Standards Space Type

OS:Rendering:Color,
  {ddfb6d14-a67b-4b04-97ae-78e4b8a7b8ef}, !- Handle
  MidriseApartment Apartment,             !- Name
  78,                                     !- Rendering Red Value
  167,                                    !- Rendering Green Value
  222;                                    !- Rendering Blue Value

OS:SpaceType,
  {efcff5fc-9d78-45a5-8373-fcf87afe471b}, !- Handle
  MidriseApartment Corridor,              !- Name
  ,                                       !- Default Construction Set Name
  ,                                       !- Default Schedule Set Name
  {a0c195d7-7d0e-4fdf-9b50-54d763c83624}, !- Group Rendering Name
  ,                                       !- Design Specification Outdoor Air Object Name
  ,                                       !- Standards Template
  MidriseApartment,                       !- Standards Building Type
  Corridor;                               !- Standards Space Type

OS:Rendering:Color,
  {a0c195d7-7d0e-4fdf-9b50-54d763c83624}, !- Handle
  MidriseApartment Corridor,              !- Name
  169,                                    !- Rendering Red Value
  31,                                     !- Rendering Green Value
  31;                                     !- Rendering Blue Value

OS:SpaceType,
  {b103afa3-ed6c-4ac3-abfb-094dafde8fd9}, !- Handle
  MidriseApartment Office,                !- Name
  ,                                       !- Default Construction Set Name
  ,                                       !- Default Schedule Set Name
  {68ee74f6-4f7b-4c48-99e7-52e2892c7fa3}, !- Group Rendering Name
  ,                                       !- Design Specification Outdoor Air Object Name
  ,                                       !- Standards Template
  MidriseApartment,                       !- Standards Building Type
  Office;                                 !- Standards Space Type

OS:Rendering:Color,
  {68ee74f6-4f7b-4c48-99e7-52e2892c7fa3}, !- Handle
  MidriseApartment Office,                !- Name
  120,                                    !- Rendering Red Value
  230,                                    !- Rendering Green Value
  199;                                    !- Rendering Blue Value

OS:Building,
  {8d059e50-1aa2-4bd3-a675-468d0e1a8d4a}, !- Handle
  90.1-2004|MidriseApartment,             !- Name
  ,                                       !- Building Sector Type
  ,                                       !- North Axis {deg}
  ,                                       !- Nominal Floor to Floor Height {m}
  ,                                       !- Space Type Name
  ,                                       !- Default Construction Set Name
  ;                                       !- Default Schedule Set Name

OS:Site,
  {03fadc2e-5cde-4885-8ac8-6dcfb5b599c4}, !- Handle
  Site 1,                                 !- Name
  ,                                       !- Latitude {deg}
  ,                                       !- Longitude {deg}
  ,                                       !- Time Zone {hr}
  ,                                       !- Elevation {m}
  ;                                       !- Terrain

OS:BuildingStory,
  {b9d1497d-2294-4d10-af1a-141519fcb675}, !- Handle
  Story Ground,                           !- Name
  0,                                      !- Nominal Z Coordinate {m}
  3.048,                                  !- Nominal Floor to Floor Height {m}
  ,                                       !- Default Construction Set Name
  ,                                       !- Default Schedule Set Name
  ;                                       !- Group Rendering Name

OS:Space,
  {264de760-960e-4ca6-bea4-136a573b067f}, !- Handle
  MidriseApartment Apartment A end_a - Story Ground, !- Name
  {3012ede0-24ad-40d1-a474-2e6f97b4da2b}, !- Space Type Name
  ,                                       !- Default Construction Set Name
  ,                                       !- Default Schedule Set Name
  -0,                                     !- Direction of Relative North {deg}
  -21.552614690566,                       !- X Origin {m}
  -7.83731443293308,                      !- Y Origin {m}
  0,                                      !- Z Origin {m}
  {b9d1497d-2294-4d10-af1a-141519fcb675}, !- Building Story Name
  {b7634f0b-ab7b-4cad-896e-7d5abf0a564c}; !- Thermal Zone Name

OS:Surface,
  {699d5775-d9a6-429b-a99b-c45ca7c33f36}, !- Handle
  Surface 1,                              !- Name
  Floor,                                  !- Surface Type
  ,                                       !- Construction Name
  {264de760-960e-4ca6-bea4-136a573b067f}, !- Space Name
  Ground,                                 !- Outside Boundary Condition
  ,                                       !- Outside Boundary Condition Object
  NoSun,                                  !- Sun Exposure
  NoWind,                                 !- Wind Exposure
  ,                                       !- View Factor to Ground
  ,                                       !- Number of Vertices
  -2.8421709430404e-014, 0, 0,            !- X,Y,Z Vertex 1 {m}
  -2.8421709430404e-014, 4.572, 0,        !- X,Y,Z Vertex 2 {m}
  4.57199999999997, 4.572, 0,             !- X,Y,Z Vertex 3 {m}
  4.57199999999997, 0, 0;                 !- X,Y,Z Vertex 4 {m}

OS:Surface,
  {35dd59ba-deee-42fe-9aee-cf1fe63610c5}, !- Handle
  Surface 2,                              !- Name
  Wall,                                   !- Surface Type
  ,                                       !- Construction Name
  {264de760-960e-4ca6-bea4-136a573b067f}, !- Space Name
  Outdoors,                               !- Outside Boundary Condition
  ,                                       !- Outside Boundary Condition Object
  SunExposed,                             !- Sun Exposure
  WindExposed,                            !- Wind Exposure
  ,                                       !- View Factor to Ground
  ,                                       !- Number of Vertices
  -2.8421709430404e-014, 4.572, 3.048,    !- X,Y,Z Vertex 1 {m}
  -2.8421709430404e-014, 4.572, 0,        !- X,Y,Z Vertex 2 {m}
  -2.8421709430404e-014, 0, 0,            !- X,Y,Z Vertex 3 {m}
  -2.8421709430404e-014, 0, 3.048;        !- X,Y,Z Vertex 4 {m}

OS:Surface,
  {ac0bdd33-c202-4f5b-b639-bf01b3f86a03}, !- Handle
  Surface 3,                              !- Name
  Wall,                                   !- Surface Type
  ,                                       !- Construction Name
  {264de760-960e-4ca6-bea4-136a573b067f}, !- Space Name
  Surface,                                !- Outside Boundary Condition
  {56d01ede-1430-4648-81c5-084434135374}, !- Outside Boundary Condition Object
  NoSun,                                  !- Sun Exposure
  NoWind,                                 !- Wind Exposure
  ,                                       !- View Factor to Ground
  ,                                       !- Number of Vertices
  4.57199999999997, 4.572, 3.048,         !- X,Y,Z Vertex 1 {m}
  4.57199999999997, 4.572, 0,             !- X,Y,Z Vertex 2 {m}
  -2.8421709430404e-014, 4.572, 0,        !- X,Y,Z Vertex 3 {m}
  -2.8421709430404e-014, 4.572, 3.048;    !- X,Y,Z Vertex 4 {m}

OS:Surface,
  {17ac2e88-2115-465f-85ea-27e78fb1a5e6}, !- Handle
  Surface 4,                              !- Name
  Wall,                                   !- Surface Type
  ,                                       !- Construction Name
  {264de760-960e-4ca6-bea4-136a573b067f}, !- Space Name
  Surface,                                !- Outside Boundary Condition
  {c779901a-3ae9-409f-a3b3-25b248499913}, !- Outside Boundary Condition Object
  NoSun,                                  !- Sun Exposure
  NoWind,                                 !- Wind Exposure
  ,                                       !- View Factor to Ground
  ,                                       !- Number of Vertices
  4.57199999999997, 0, 3.048,             !- X,Y,Z Vertex 1 {m}
  4.57199999999997, 0, 0,                 !- X,Y,Z Vertex 2 {m}
  4.57199999999997, 4.572, 0,             !- X,Y,Z Vertex 3 {m}
  4.57199999999997, 4.572, 3.048;         !- X,Y,Z Vertex 4 {m}

OS:Surface,
  {b03ea7d6-88a5-438f-926f-9ee281089f20}, !- Handle
  Surface 5,                              !- Name
  Wall,                                   !- Surface Type
  ,                                       !- Construction Name
  {264de760-960e-4ca6-bea4-136a573b067f}, !- Space Name
  Outdoors,                               !- Outside Boundary Condition
  ,                                       !- Outside Boundary Condition Object
  SunExposed,                             !- Sun Exposure
  WindExposed,                            !- Wind Exposure
  ,                                       !- View Factor to Ground
  ,                                       !- Number of Vertices
  -2.8421709430404e-014, 0, 3.048,        !- X,Y,Z Vertex 1 {m}
  -2.8421709430404e-014, 0, 0,            !- X,Y,Z Vertex 2 {m}
  4.57199999999997, 0, 0,                 !- X,Y,Z Vertex 3 {m}
  4.57199999999997, 0, 3.048;             !- X,Y,Z Vertex 4 {m}

OS:Surface,
  {62a88a73-05a4-40b6-bf72-a0cb98b3250e}, !- Handle
  Surface 6,                              !- Name
  RoofCeiling,                            !- Surface Type
  ,                                       !- Construction Name
  {264de760-960e-4ca6-bea4-136a573b067f}, !- Space Name
  Adiabatic,                              !- Outside Boundary Condition
  ,                                       !- Outside Boundary Condition Object
  NoSun,                                  !- Sun Exposure
  NoWind,                                 !- Wind Exposure
  ,                                       !- View Factor to Ground
  ,                                       !- Number of Vertices
  4.57199999999997, 0, 3.048,             !- X,Y,Z Vertex 1 {m}
  4.57199999999997, 4.572, 3.048,         !- X,Y,Z Vertex 2 {m}
  -2.8421709430404e-014, 4.572, 3.048,    !- X,Y,Z Vertex 3 {m}
  -2.8421709430404e-014, 0, 3.048;        !- X,Y,Z Vertex 4 {m}

OS:ThermalZone,
  {b7634f0b-ab7b-4cad-896e-7d5abf0a564c}, !- Handle
  Zone MidriseApartment Apartment A end_a - Story Ground, !- Name
  1,                                      !- Multiplier
  ,                                       !- Ceiling Height {m}
  ,                                       !- Volume {m3}
  ,                                       !- Floor Area {m2}
  ,                                       !- Zone Inside Convection Algorithm
  ,                                       !- Zone Outside Convection Algorithm
  ,                                       !- Zone Conditioning Equipment List Name
  {5d9635e6-86e2-4ec6-917c-f889bf5f7da3}, !- Zone Air Inlet Port List
  {e2c302cc-277e-49bd-9d73-99e4bf30eb43}, !- Zone Air Exhaust Port List
  {2bafbe39-6df5-4d63-a45d-34305ffb82a6}, !- Zone Air Node Name
  {3af59de9-55ad-4c7f-82e5-5b6e9aec46c2}, !- Zone Return Air Port List
  ,                                       !- Primary Daylighting Control Name
  ,                                       !- Fraction of Zone Controlled by Primary Daylighting Control
  ,                                       !- Secondary Daylighting Control Name
  ,                                       !- Fraction of Zone Controlled by Secondary Daylighting Control
  ,                                       !- Illuminance Map Name
  ,                                       !- Group Rendering Name
  ,                                       !- Thermostat Name
  No;                                     !- Use Ideal Air Loads

OS:Node,
  {3b67bb8f-4cda-486b-b356-a53c39b2e4b2}, !- Handle
  Node 1,                                 !- Name
  {2bafbe39-6df5-4d63-a45d-34305ffb82a6}, !- Inlet Port
  ;                                       !- Outlet Port

OS:Connection,
  {2bafbe39-6df5-4d63-a45d-34305ffb82a6}, !- Handle
  {1b45c596-b6de-4deb-8c67-b5af12972e39}, !- Name
  {b7634f0b-ab7b-4cad-896e-7d5abf0a564c}, !- Source Object
  11,                                     !- Outlet Port
  {3b67bb8f-4cda-486b-b356-a53c39b2e4b2}, !- Target Object
  2;                                      !- Inlet Port

OS:PortList,
  {5d9635e6-86e2-4ec6-917c-f889bf5f7da3}, !- Handle
  {7aee059c-b9b3-4431-ad13-ba1e98a97a2f}, !- Name
  {b7634f0b-ab7b-4cad-896e-7d5abf0a564c}; !- HVAC Component

OS:PortList,
  {e2c302cc-277e-49bd-9d73-99e4bf30eb43}, !- Handle
  {db84af47-1fc3-4985-9fc2-163be7bbd978}, !- Name
  {b7634f0b-ab7b-4cad-896e-7d5abf0a564c}; !- HVAC Component

OS:PortList,
  {3af59de9-55ad-4c7f-82e5-5b6e9aec46c2}, !- Handle
  {be460b5b-b162-494b-bb5c-50ff31a78282}, !- Name
  {b7634f0b-ab7b-4cad-896e-7d5abf0a564c}; !- HVAC Component

OS:Sizing:Zone,
  {fd3578c8-303f-4faf-b711-811b485eef4c}, !- Handle
  {b7634f0b-ab7b-4cad-896e-7d5abf0a564c}, !- Zone or ZoneList Name
  SupplyAirTemperature,                   !- Zone Cooling Design Supply Air Temperature Input Method
  14,                                     !- Zone Cooling Design Supply Air Temperature {C}
  11.11,                                  !- Zone Cooling Design Supply Air Temperature Difference {deltaC}
  SupplyAirTemperature,                   !- Zone Heating Design Supply Air Temperature Input Method
  40,                                     !- Zone Heating Design Supply Air Temperature {C}
  11.11,                                  !- Zone Heating Design Supply Air Temperature Difference {deltaC}
  0.0085,                                 !- Zone Cooling Design Supply Air Humidity Ratio {kg-H2O/kg-air}
  0.008,                                  !- Zone Heating Design Supply Air Humidity Ratio {kg-H2O/kg-air}
  ,                                       !- Zone Heating Sizing Factor
  ,                                       !- Zone Cooling Sizing Factor
  DesignDay,                              !- Cooling Design Air Flow Method
  ,                                       !- Cooling Design Air Flow Rate {m3/s}
  ,                                       !- Cooling Minimum Air Flow per Zone Floor Area {m3/s-m2}
  ,                                       !- Cooling Minimum Air Flow {m3/s}
  ,                                       !- Cooling Minimum Air Flow Fraction
  DesignDay,                              !- Heating Design Air Flow Method
  ,                                       !- Heating Design Air Flow Rate {m3/s}
  ,                                       !- Heating Maximum Air Flow per Zone Floor Area {m3/s-m2}
  ,                                       !- Heating Maximum Air Flow {m3/s}
  ,                                       !- Heating Maximum Air Flow Fraction
  ,                                       !- Design Zone Air Distribution Effectiveness in Cooling Mode
  ,                                       !- Design Zone Air Distribution Effectiveness in Heating Mode
  No,                                     !- Account for Dedicated Outdoor Air System
  NeutralSupplyAir,                       !- Dedicated Outdoor Air System Control Strategy
  autosize,                               !- Dedicated Outdoor Air Low Setpoint Temperature for Design {C}
  autosize;                               !- Dedicated Outdoor Air High Setpoint Temperature for Design {C}

OS:ZoneHVAC:EquipmentList,
  {66e053aa-527f-4355-9096-86f98e88fc95}, !- Handle
  Zone HVAC Equipment List 1,             !- Name
  {b7634f0b-ab7b-4cad-896e-7d5abf0a564c}; !- Thermal Zone

OS:Space,
  {39a3d3ae-4729-41bd-8235-1a0acd9f9765}, !- Handle
  MidriseApartment Apartment B end_a - Story Ground, !- Name
  {3012ede0-24ad-40d1-a474-2e6f97b4da2b}, !- Space Type Name
  ,                                       !- Default Construction Set Name
  ,                                       !- Default Schedule Set Name
  -0,                                     !- Direction of Relative North {deg}
  -21.552614690566,                       !- X Origin {m}
  -3.26531443293308,                      !- Y Origin {m}
  0,                                      !- Z Origin {m}
  {b9d1497d-2294-4d10-af1a-141519fcb675}, !- Building Story Name
  {eb2d58ec-48e3-4eb6-8518-901b1813c25b}; !- Thermal Zone Name

OS:Surface,
  {30b7a19a-a658-4573-b51c-486ab513b04b}, !- Handle
  Surface 7,                              !- Name
  Floor,                                  !- Surface Type
  ,                                       !- Construction Name
  {39a3d3ae-4729-41bd-8235-1a0acd9f9765}, !- Space Name
  Ground,                                 !- Outside Boundary Condition
  ,                                       !- Outside Boundary Condition Object
  NoSun,                                  !- Sun Exposure
  NoWind,                                 !- Wind Exposure
  ,                                       !- View Factor to Ground
  ,                                       !- Number of Vertices
  -2.8421709430404e-014, -4.44089209850063e-016, 0, !- X,Y,Z Vertex 1 {m}
  -2.8421709430404e-014, 6.53062886586616, 0, !- X,Y,Z Vertex 2 {m}
  4.57199999999997, 6.53062886586616, 0,  !- X,Y,Z Vertex 3 {m}
  4.57199999999997, -4.44089209850063e-016, 0; !- X,Y,Z Vertex 4 {m}

OS:Surface,
  {758a21de-584a-44c4-8362-0cb12a9372ed}, !- Handle
  Surface 8,                              !- Name
  Wall,                                   !- Surface Type
  ,                                       !- Construction Name
  {39a3d3ae-4729-41bd-8235-1a0acd9f9765}, !- Space Name
  Outdoors,                               !- Outside Boundary Condition
  ,                                       !- Outside Boundary Condition Object
  SunExposed,                             !- Sun Exposure
  WindExposed,                            !- Wind Exposure
  ,                                       !- View Factor to Ground
  ,                                       !- Number of Vertices
  -2.8421709430404e-014, 6.53062886586616, 3.048, !- X,Y,Z Vertex 1 {m}
  -2.8421709430404e-014, 6.53062886586616, 0, !- X,Y,Z Vertex 2 {m}
  -2.8421709430404e-014, -4.44089209850063e-016, 0, !- X,Y,Z Vertex 3 {m}
  -2.8421709430404e-014, -4.44089209850063e-016, 3.048; !- X,Y,Z Vertex 4 {m}

OS:Surface,
  {603d490a-070c-41b4-8161-e63d0b099301}, !- Handle
  Surface 9,                              !- Name
  Wall,                                   !- Surface Type
  ,                                       !- Construction Name
  {39a3d3ae-4729-41bd-8235-1a0acd9f9765}, !- Space Name
  Surface,                                !- Outside Boundary Condition
  {cd5e42f4-4800-4036-9202-2cb9b3fb7e1d}, !- Outside Boundary Condition Object
  NoSun,                                  !- Sun Exposure
  NoWind,                                 !- Wind Exposure
  ,                                       !- View Factor to Ground
  ,                                       !- Number of Vertices
  4.57199999999997, 6.53062886586616, 3.048, !- X,Y,Z Vertex 1 {m}
  4.57199999999997, 6.53062886586616, 0,  !- X,Y,Z Vertex 2 {m}
  -2.8421709430404e-014, 6.53062886586616, 0, !- X,Y,Z Vertex 3 {m}
  -2.8421709430404e-014, 6.53062886586616, 3.048; !- X,Y,Z Vertex 4 {m}

OS:Surface,
  {f9c55fdf-666b-4023-96f0-2b395c303cd1}, !- Handle
  Surface 10,                             !- Name
  Wall,                                   !- Surface Type
  ,                                       !- Construction Name
  {39a3d3ae-4729-41bd-8235-1a0acd9f9765}, !- Space Name
  Surface,                                !- Outside Boundary Condition
  {c0f6bd9e-1c29-4777-8ed6-f260f6e3b8df}, !- Outside Boundary Condition Object
  NoSun,                                  !- Sun Exposure
  NoWind,                                 !- Wind Exposure
  ,                                       !- View Factor to Ground
  ,                                       !- Number of Vertices
  4.57199999999997, -4.44089209850063e-016, 3.048, !- X,Y,Z Vertex 1 {m}
  4.57199999999997, -4.44089209850063e-016, 0, !- X,Y,Z Vertex 2 {m}
  4.57199999999997, 6.53062886586616, 0,  !- X,Y,Z Vertex 3 {m}
  4.57199999999997, 6.53062886586616, 3.048; !- X,Y,Z Vertex 4 {m}

OS:Surface,
  {56d01ede-1430-4648-81c5-084434135374}, !- Handle
  Surface 11,                             !- Name
  Wall,                                   !- Surface Type
  ,                                       !- Construction Name
  {39a3d3ae-4729-41bd-8235-1a0acd9f9765}, !- Space Name
  Surface,                                !- Outside Boundary Condition
  {ac0bdd33-c202-4f5b-b639-bf01b3f86a03}, !- Outside Boundary Condition Object
  NoSun,                                  !- Sun Exposure
  NoWind,                                 !- Wind Exposure
  ,                                       !- View Factor to Ground
  ,                                       !- Number of Vertices
  -2.8421709430404e-014, -4.44089209850063e-016, 3.048, !- X,Y,Z Vertex 1 {m}
  -2.8421709430404e-014, -4.44089209850063e-016, 0, !- X,Y,Z Vertex 2 {m}
  4.57199999999997, -4.44089209850063e-016, 0, !- X,Y,Z Vertex 3 {m}
  4.57199999999997, -4.44089209850063e-016, 3.048; !- X,Y,Z Vertex 4 {m}

OS:Surface,
  {e511e6ef-4224-467f-b02e-2055e9b8dcf5}, !- Handle
  Surface 12,                             !- Name
  RoofCeiling,                            !- Surface Type
  ,                                       !- Construction Name
  {39a3d3ae-4729-41bd-8235-1a0acd9f9765}, !- Space Name
  Adiabatic,                              !- Outside Boundary Condition
  ,                                       !- Outside Boundary Condition Object
  NoSun,                                  !- Sun Exposure
  NoWind,                                 !- Wind Exposure
  ,                                       !- View Factor to Ground
  ,                                       !- Number of Vertices
  4.57199999999997, -4.44089209850063e-016, 3.048, !- X,Y,Z Vertex 1 {m}
  4.57199999999997, 6.53062886586616, 3.048, !- X,Y,Z Vertex 2 {m}
  -2.8421709430404e-014, 6.53062886586616, 3.048, !- X,Y,Z Vertex 3 {m}
  -2.8421709430404e-014, -4.44089209850063e-016, 3.048; !- X,Y,Z Vertex 4 {m}

OS:ThermalZone,
  {eb2d58ec-48e3-4eb6-8518-901b1813c25b}, !- Handle
  Zone MidriseApartment Apartment B end_a - Story Ground, !- Name
  1,                                      !- Multiplier
  ,                                       !- Ceiling Height {m}
  ,                                       !- Volume {m3}
  ,                                       !- Floor Area {m2}
  ,                                       !- Zone Inside Convection Algorithm
  ,                                       !- Zone Outside Convection Algorithm
  ,                                       !- Zone Conditioning Equipment List Name
  {ffd46a0a-8d97-49d9-831f-5b6badb47817}, !- Zone Air Inlet Port List
  {1018b351-5b8c-4f48-9c44-a678098ae4fd}, !- Zone Air Exhaust Port List
  {1960e83c-4ea8-4d91-ac54-cef02847dfcf}, !- Zone Air Node Name
  {9969d3ff-20bd-4e12-ad5f-13c83b1f4ab1}, !- Zone Return Air Port List
  ,                                       !- Primary Daylighting Control Name
  ,                                       !- Fraction of Zone Controlled by Primary Daylighting Control
  ,                                       !- Secondary Daylighting Control Name
  ,                                       !- Fraction of Zone Controlled by Secondary Daylighting Control
  ,                                       !- Illuminance Map Name
  ,                                       !- Group Rendering Name
  ,                                       !- Thermostat Name
  No;                                     !- Use Ideal Air Loads

OS:Node,
  {ead3b60e-122d-4634-bcc4-8c7b0911b18f}, !- Handle
  Node 2,                                 !- Name
  {1960e83c-4ea8-4d91-ac54-cef02847dfcf}, !- Inlet Port
  ;                                       !- Outlet Port

OS:Connection,
  {1960e83c-4ea8-4d91-ac54-cef02847dfcf}, !- Handle
  {087432f5-b447-45a9-bcf4-1d1f31122022}, !- Name
  {eb2d58ec-48e3-4eb6-8518-901b1813c25b}, !- Source Object
  11,                                     !- Outlet Port
  {ead3b60e-122d-4634-bcc4-8c7b0911b18f}, !- Target Object
  2;                                      !- Inlet Port

OS:PortList,
  {ffd46a0a-8d97-49d9-831f-5b6badb47817}, !- Handle
  {64dc6006-95f7-433e-bc6c-8b14827387e5}, !- Name
  {eb2d58ec-48e3-4eb6-8518-901b1813c25b}; !- HVAC Component

OS:PortList,
  {1018b351-5b8c-4f48-9c44-a678098ae4fd}, !- Handle
  {8fe60551-ea0f-44d8-a061-f43077bc7b1e}, !- Name
  {eb2d58ec-48e3-4eb6-8518-901b1813c25b}; !- HVAC Component

OS:PortList,
  {9969d3ff-20bd-4e12-ad5f-13c83b1f4ab1}, !- Handle
  {56760efc-2f2d-4603-981a-c88c01573efd}, !- Name
  {eb2d58ec-48e3-4eb6-8518-901b1813c25b}; !- HVAC Component

OS:Sizing:Zone,
  {2572bff8-6c15-4230-b357-6a960f2c6a3d}, !- Handle
  {eb2d58ec-48e3-4eb6-8518-901b1813c25b}, !- Zone or ZoneList Name
  SupplyAirTemperature,                   !- Zone Cooling Design Supply Air Temperature Input Method
  14,                                     !- Zone Cooling Design Supply Air Temperature {C}
  11.11,                                  !- Zone Cooling Design Supply Air Temperature Difference {deltaC}
  SupplyAirTemperature,                   !- Zone Heating Design Supply Air Temperature Input Method
  40,                                     !- Zone Heating Design Supply Air Temperature {C}
  11.11,                                  !- Zone Heating Design Supply Air Temperature Difference {deltaC}
  0.0085,                                 !- Zone Cooling Design Supply Air Humidity Ratio {kg-H2O/kg-air}
  0.008,                                  !- Zone Heating Design Supply Air Humidity Ratio {kg-H2O/kg-air}
  ,                                       !- Zone Heating Sizing Factor
  ,                                       !- Zone Cooling Sizing Factor
  DesignDay,                              !- Cooling Design Air Flow Method
  ,                                       !- Cooling Design Air Flow Rate {m3/s}
  ,                                       !- Cooling Minimum Air Flow per Zone Floor Area {m3/s-m2}
  ,                                       !- Cooling Minimum Air Flow {m3/s}
  ,                                       !- Cooling Minimum Air Flow Fraction
  DesignDay,                              !- Heating Design Air Flow Method
  ,                                       !- Heating Design Air Flow Rate {m3/s}
  ,                                       !- Heating Maximum Air Flow per Zone Floor Area {m3/s-m2}
  ,                                       !- Heating Maximum Air Flow {m3/s}
  ,                                       !- Heating Maximum Air Flow Fraction
  ,                                       !- Design Zone Air Distribution Effectiveness in Cooling Mode
  ,                                       !- Design Zone Air Distribution Effectiveness in Heating Mode
  No,                                     !- Account for Dedicated Outdoor Air System
  NeutralSupplyAir,                       !- Dedicated Outdoor Air System Control Strategy
  autosize,                               !- Dedicated Outdoor Air Low Setpoint Temperature for Design {C}
  autosize;                               !- Dedicated Outdoor Air High Setpoint Temperature for Design {C}

OS:ZoneHVAC:EquipmentList,
  {426a2e02-1f35-4e52-8d0d-2156ac351a53}, !- Handle
  Zone HVAC Equipment List 2,             !- Name
  {eb2d58ec-48e3-4eb6-8518-901b1813c25b}; !- Thermal Zone

OS:Space,
  {37c81908-23ac-4991-a363-eec5a2bc126e}, !- Handle
  MidriseApartment Apartment C end_a - Story Ground, !- Name
  {3012ede0-24ad-40d1-a474-2e6f97b4da2b}, !- Space Type Name
  ,                                       !- Default Construction Set Name
  ,                                       !- Default Schedule Set Name
  -0,                                     !- Direction of Relative North {deg}
  -21.552614690566,                       !- X Origin {m}
  3.26531443293308,                       !- Y Origin {m}
  0,                                      !- Z Origin {m}
  {b9d1497d-2294-4d10-af1a-141519fcb675}, !- Building Story Name
  {e6a151f8-878a-41ed-90e3-4d925f7a52ab}; !- Thermal Zone Name

OS:Surface,
  {2c1d75c9-fa3f-4cca-afb3-ed0f4c51247b}, !- Handle
  Surface 13,                             !- Name
  Floor,                                  !- Surface Type
  ,                                       !- Construction Name
  {37c81908-23ac-4991-a363-eec5a2bc126e}, !- Space Name
  Ground,                                 !- Outside Boundary Condition
  ,                                       !- Outside Boundary Condition Object
  NoSun,                                  !- Sun Exposure
  NoWind,                                 !- Wind Exposure
  ,                                       !- View Factor to Ground
  ,                                       !- Number of Vertices
  -2.8421709430404e-014, 4.44089209850063e-016, 0, !- X,Y,Z Vertex 1 {m}
  -2.8421709430404e-014, 4.572, 0,        !- X,Y,Z Vertex 2 {m}
  4.57199999999997, 4.572, 0,             !- X,Y,Z Vertex 3 {m}
  4.57199999999997, 4.44089209850063e-016, 0; !- X,Y,Z Vertex 4 {m}

OS:Surface,
  {741d3dfc-1cf1-4ddd-90e7-eafae6127c43}, !- Handle
  Surface 14,                             !- Name
  Wall,                                   !- Surface Type
  ,                                       !- Construction Name
  {37c81908-23ac-4991-a363-eec5a2bc126e}, !- Space Name