
OS:Version,
  {d4f9521a-22ed-4230-9a7d-9393703ec1db}, !- Handle
  2.7.2;                                  !- Version Identifier

OS:SpaceType,
  {48eb3746-bd8c-4227-a2ef-3c28d875402a}, !- Handle
  LargeHotel Banquet,                     !- Name
  ,                                       !- Default Construction Set Name
  ,                                       !- Default Schedule Set Name
  {b89964f1-1cf3-426c-988e-bb042639f92c}, !- Group Rendering Name
  ,                                       !- Design Specification Outdoor Air Object Name
  ,                                       !- Standards Template
  LargeHotel,                             !- Standards Building Type
  Banquet;                                !- Standards Space Type

OS:Rendering:Color,
  {b89964f1-1cf3-426c-988e-bb042639f92c}, !- Handle
  LargeHotel Banquet,                     !- Name
  230,                                    !- Rendering Red Value
  196,                                    !- Rendering Green Value
  120;                                    !- Rendering Blue Value

OS:SpaceType,
  {0717363d-0f22-415c-a3a6-5391761d530b}, !- Handle
  LargeHotel Cafe,                        !- Name
  ,                                       !- Default Construction Set Name
  ,                                       !- Default Schedule Set Name
  {d39c83ff-ceed-4902-8aba-433316e5a76f}, !- Group Rendering Name
  ,                                       !- Design Specification Outdoor Air Object Name
  ,                                       !- Standards Template
  LargeHotel,                             !- Standards Building Type
  Cafe;                                   !- Standards Space Type

OS:Rendering:Color,
  {d39c83ff-ceed-4902-8aba-433316e5a76f}, !- Handle
  LargeHotel Cafe,                        !- Name
  31,                                     !- Rendering Red Value
  169,                                    !- Rendering Green Value
  34;                                     !- Rendering Blue Value

OS:SpaceType,
  {4dd2cdf8-feef-46aa-9839-1f0c2ba0d917}, !- Handle
  LargeHotel Corridor,                    !- Name
  ,                                       !- Default Construction Set Name
  ,                                       !- Default Schedule Set Name
  {bc09e318-5f83-48ad-82c1-573090921388}, !- Group Rendering Name
  ,                                       !- Design Specification Outdoor Air Object Name
  ,                                       !- Standards Template
  LargeHotel,                             !- Standards Building Type
  Corridor;                               !- Standards Space Type

OS:Rendering:Color,
  {bc09e318-5f83-48ad-82c1-573090921388}, !- Handle
  LargeHotel Corridor,                    !- Name
  169,                                    !- Rendering Red Value
  31,                                     !- Rendering Green Value
  31;                                     !- Rendering Blue Value

OS:SpaceType,
  {7c3e28d4-982a-430f-ae6b-aa8d5752da49}, !- Handle
  LargeHotel GuestRoom,                   !- Name
  ,                                       !- Default Construction Set Name
  ,                                       !- Default Schedule Set Name
  {71854d11-3f17-4bfd-94e3-cb40acb79957}, !- Group Rendering Name
  ,                                       !- Design Specification Outdoor Air Object Name
  ,                                       !- Standards Template
  LargeHotel,                             !- Standards Building Type
  GuestRoom;                              !- Standards Space Type

OS:Rendering:Color,
  {71854d11-3f17-4bfd-94e3-cb40acb79957}, !- Handle
  LargeHotel GuestRoom,                   !- Name
  78,                                     !- Rendering Red Value
  167,                                    !- Rendering Green Value
  222;                                    !- Rendering Blue Value

OS:SpaceType,
  {09e5e807-4f88-430b-a318-ee4aaf8f275c}, !- Handle
  LargeHotel Kitchen,                     !- Name
  ,                                       !- Default Construction Set Name
  ,                                       !- Default Schedule Set Name
  {65545e27-c95c-4782-904e-de93b09834a6}, !- Group Rendering Name
  ,                                       !- Design Specification Outdoor Air Object Name
  ,                                       !- Standards Template
  LargeHotel,                             !- Standards Building Type
  Kitchen;                                !- Standards Space Type

OS:Rendering:Color,
  {65545e27-c95c-4782-904e-de93b09834a6}, !- Handle
  LargeHotel Kitchen,                     !- Name
  78,                                     !- Rendering Red Value
  222,                                    !- Rendering Green Value
  133;                                    !- Rendering Blue Value

OS:SpaceType,
  {7a3a7be0-2b9f-4c08-aedb-3336b4db78b9}, !- Handle
  LargeHotel Laundry,                     !- Name
  ,                                       !- Default Construction Set Name
  ,                                       !- Default Schedule Set Name
  {9b6a318d-82ab-4a29-8eb6-d0c2638ac9d5}, !- Group Rendering Name
  ,                                       !- Design Specification Outdoor Air Object Name
  ,                                       !- Standards Template
  LargeHotel,                             !- Standards Building Type
  Laundry;                                !- Standards Space Type

OS:Rendering:Color,
  {9b6a318d-82ab-4a29-8eb6-d0c2638ac9d5}, !- Handle
  LargeHotel Laundry,                     !- Name
  120,                                    !- Rendering Red Value
  149,                                    !- Rendering Green Value
  230;                                    !- Rendering Blue Value

OS:SpaceType,
  {b7e51398-6a4b-4b0a-8718-60fcd0443cee}, !- Handle
  LargeHotel Lobby,                       !- Name
  ,                                       !- Default Construction Set Name
  ,                                       !- Default Schedule Set Name
  {a6dda12f-f11c-48cf-8cfa-8449776c673c}, !- Group Rendering Name
  ,                                       !- Design Specification Outdoor Air Object Name
  ,                                       !- Standards Template
  LargeHotel,                             !- Standards Building Type
  Lobby;                                  !- Standards Space Type

OS:Rendering:Color,
  {a6dda12f-f11c-48cf-8cfa-8449776c673c}, !- Handle
  LargeHotel Lobby,                       !- Name
  230,                                    !- Rendering Red Value
  157,                                    !- Rendering Green Value
  120;                                    !- Rendering Blue Value

OS:SpaceType,
  {f632b2e9-3ceb-43c4-b92f-79dd05f9f338}, !- Handle
  LargeHotel Mechanical,                  !- Name
  ,                                       !- Default Construction Set Name
  ,                                       !- Default Schedule Set Name
  {68a24392-0bd2-47df-acf0-27a8b9ffe106}, !- Group Rendering Name
  ,                                       !- Design Specification Outdoor Air Object Name
  ,                                       !- Standards Template
  LargeHotel,                             !- Standards Building Type
  Mechanical;                             !- Standards Space Type

OS:Rendering:Color,
  {68a24392-0bd2-47df-acf0-27a8b9ffe106}, !- Handle
  LargeHotel Mechanical,                  !- Name
  41,                                     !- Rendering Red Value
  31,                                     !- Rendering Green Value
  169;                                    !- Rendering Blue Value

OS:SpaceType,
  {6b4dd3e6-4f8c-4960-8188-dde57d253eb2}, !- Handle
  LargeHotel Retail,                      !- Name
  ,                                       !- Default Construction Set Name
  ,                                       !- Default Schedule Set Name
  {7806dc1e-b55a-47a3-baa4-ee3236c16f01}, !- Group Rendering Name
  ,                                       !- Design Specification Outdoor Air Object Name
  ,                                       !- Standards Template
  LargeHotel,                             !- Standards Building Type
  Retail;                                 !- Standards Space Type

OS:Rendering:Color,
  {7806dc1e-b55a-47a3-baa4-ee3236c16f01}, !- Handle
  LargeHotel Retail,                      !- Name
  171,                                    !- Rendering Red Value
  222,                                    !- Rendering Green Value
  78;                                     !- Rendering Blue Value

OS:SpaceType,
  {2ef18198-7a19-4c6c-b952-027623b554c4}, !- Handle
  LargeHotel Storage,                     !- Name
  ,                                       !- Default Construction Set Name
  ,                                       !- Default Schedule Set Name
  {60603f62-1d95-493e-985f-7934be0ec54d}, !- Group Rendering Name
  ,                                       !- Design Specification Outdoor Air Object Name
  ,                                       !- Standards Template
  LargeHotel,                             !- Standards Building Type
  Storage;                                !- Standards Space Type

OS:Rendering:Color,
  {60603f62-1d95-493e-985f-7934be0ec54d}, !- Handle
  LargeHotel Storage,                     !- Name
  120,                                    !- Rendering Red Value
  149,                                    !- Rendering Green Value
  230;                                    !- Rendering Blue Value

OS:Building,
  {dde09578-c207-4c1c-8d17-15c063d2ccf5}, !- Handle
  90.1-2004|LargeHotel,                   !- Name
  ,                                       !- Building Sector Type
  ,                                       !- North Axis {deg}
  ,                                       !- Nominal Floor to Floor Height {m}
  ,                                       !- Space Type Name
  ,                                       !- Default Construction Set Name
  ;                                       !- Default Schedule Set Name

OS:Site,
  {4b4fdec7-c8b4-4357-b903-bfde8c49ad80}, !- Handle
  Site 1,                                 !- Name
  ,                                       !- Latitude {deg}
  ,                                       !- Longitude {deg}
  ,                                       !- Time Zone {hr}
  ,                                       !- Elevation {m}
  ;                                       !- Terrain

OS:BuildingStory,
  {c8293f0f-bce4-4c83-8ff0-5d290596c9ec}, !- Handle
  Story Ground,                           !- Name
  0,                                      !- Nominal Z Coordinate {m}
  3.048,                                  !- Nominal Floor to Floor Height {m}
  ,                                       !- Default Construction Set Name
  ,                                       !- Default Schedule Set Name
  ;                                       !- Group Rendering Name

OS:Space,
  {549ff7b8-40ab-4892-bc33-c732f37846b0}, !- Handle
  LargeHotel Banquet A end_a - Story Ground, !- Name
  {48eb3746-bd8c-4227-a2ef-3c28d875402a}, !- Space Type Name
  ,                                       !- Default Construction Set Name
  ,                                       !- Default Schedule Set Name
  -0,                                     !- Direction of Relative North {deg}
  -29.3507163920623,                      !- X Origin {m}
  -5.75504242981613,                      !- Y Origin {m}
  0,                                      !- Z Origin {m}
  {c8293f0f-bce4-4c83-8ff0-5d290596c9ec}, !- Building Story Name
  {0a3c6279-7c03-4643-a8b0-8a0232b455fe}; !- Thermal Zone Name

OS:Surface,
  {aa377be4-be3f-4dec-8f8a-13f29e987f30}, !- Handle
  Surface 1,                              !- Name
  Floor,                                  !- Surface Type
  ,                                       !- Construction Name
  {549ff7b8-40ab-4892-bc33-c732f37846b0}, !- Space Name
  Ground,                                 !- Outside Boundary Condition
  ,                                       !- Outside Boundary Condition Object
  NoSun,                                  !- Sun Exposure
  NoWind,                                 !- Wind Exposure
  ,                                       !- View Factor to Ground
  ,                                       !- Number of Vertices
  -2.8421709430404e-014, 1.77635683940025e-015, 0, !- X,Y,Z Vertex 1 {m}
  -2.8421709430404e-014, 4.572, 0,        !- X,Y,Z Vertex 2 {m}
  4.57199999999997, 4.572, 0,             !- X,Y,Z Vertex 3 {m}
  4.57199999999997, 1.77635683940025e-015, 0; !- X,Y,Z Vertex 4 {m}

OS:Surface,
  {db884409-bb2a-49ed-9476-241230313782}, !- Handle
  Surface 2,                              !- Name
  Wall,                                   !- Surface Type
  ,                                       !- Construction Name
  {549ff7b8-40ab-4892-bc33-c732f37846b0}, !- Space Name
  Outdoors,                               !- Outside Boundary Condition
  ,                                       !- Outside Boundary Condition Object
  SunExposed,                             !- Sun Exposure
  WindExposed,                            !- Wind Exposure
  ,                                       !- View Factor to Ground
  ,                                       !- Number of Vertices
  -2.8421709430404e-014, 4.572, 3.048,    !- X,Y,Z Vertex 1 {m}
  -2.8421709430404e-014, 4.572, 0,        !- X,Y,Z Vertex 2 {m}
  -2.8421709430404e-014, 1.77635683940025e-015, 0, !- X,Y,Z Vertex 3 {m}
  -2.8421709430404e-014, 1.77635683940025e-015, 3.048; !- X,Y,Z Vertex 4 {m}

OS:Surface,
  {60dc2ddd-196b-49f9-84ba-f1a8dbdf203b}, !- Handle
  Surface 3,                              !- Name
  Wall,                                   !- Surface Type
  ,                                       !- Construction Name
  {549ff7b8-40ab-4892-bc33-c732f37846b0}, !- Space Name
  Surface,                                !- Outside Boundary Condition
  {673609df-bf57-47fc-bd1a-c586c76bfc25}, !- Outside Boundary Condition Object
  NoSun,                                  !- Sun Exposure
  NoWind,                                 !- Wind Exposure
  ,                                       !- View Factor to Ground
  ,                                       !- Number of Vertices
  4.57199999999997, 4.572, 3.048,         !- X,Y,Z Vertex 1 {m}
  4.57199999999997, 4.572, 0,             !- X,Y,Z Vertex 2 {m}
  -2.8421709430404e-014, 4.572, 0,        !- X,Y,Z Vertex 3 {m}
  -2.8421709430404e-014, 4.572, 3.048;    !- X,Y,Z Vertex 4 {m}

OS:Surface,
  {d4c1b6ac-25dc-4842-9f03-3a7e87f0a5a6}, !- Handle
  Surface 4,                              !- Name
  Wall,                                   !- Surface Type
  ,                                       !- Construction Name
  {549ff7b8-40ab-4892-bc33-c732f37846b0}, !- Space Name
  Surface,                                !- Outside Boundary Condition
  {303c87e5-bf74-414d-a07c-0d05935ec1bb}, !- Outside Boundary Condition Object
  NoSun,                                  !- Sun Exposure
  NoWind,                                 !- Wind Exposure
  ,                                       !- View Factor to Ground
  ,                                       !- Number of Vertices
  4.57199999999997, 1.77635683940025e-015, 3.048, !- X,Y,Z Vertex 1 {m}
  4.57199999999997, 1.77635683940025e-015, 0, !- X,Y,Z Vertex 2 {m}
  4.57199999999997, 4.572, 0,             !- X,Y,Z Vertex 3 {m}
  4.57199999999997, 4.572, 3.048;         !- X,Y,Z Vertex 4 {m}

OS:Surface,
  {b56e2dd8-c1bc-4915-9357-693cf5693d0d}, !- Handle
  Surface 5,                              !- Name
  Wall,                                   !- Surface Type
  ,                                       !- Construction Name
  {549ff7b8-40ab-4892-bc33-c732f37846b0}, !- Space Name
  Outdoors,                               !- Outside Boundary Condition
  ,                                       !- Outside Boundary Condition Object
  SunExposed,                             !- Sun Exposure
  WindExposed,                            !- Wind Exposure
  ,                                       !- View Factor to Ground
  ,                                       !- Number of Vertices
  -2.8421709430404e-014, 1.77635683940025e-015, 3.048, !- X,Y,Z Vertex 1 {m}
  -2.8421709430404e-014, 1.77635683940025e-015, 0, !- X,Y,Z Vertex 2 {m}
  4.57199999999997, 1.77635683940025e-015, 0, !- X,Y,Z Vertex 3 {m}
  4.57199999999997, 1.77635683940025e-015, 3.048; !- X,Y,Z Vertex 4 {m}

OS:Surface,
  {5cfe5865-0d47-48cc-915c-c06f9751b339}, !- Handle
  Surface 6,                              !- Name
  RoofCeiling,                            !- Surface Type
  ,                                       !- Construction Name
  {549ff7b8-40ab-4892-bc33-c732f37846b0}, !- Space Name
  Adiabatic,                              !- Outside Boundary Condition
  ,                                       !- Outside Boundary Condition Object
  NoSun,                                  !- Sun Exposure
  NoWind,                                 !- Wind Exposure
  ,                                       !- View Factor to Ground
  ,                                       !- Number of Vertices
  4.57199999999997, 1.77635683940025e-015, 3.048, !- X,Y,Z Vertex 1 {m}
  4.57199999999997, 4.572, 3.048,         !- X,Y,Z Vertex 2 {m}
  -2.8421709430404e-014, 4.572, 3.048,    !- X,Y,Z Vertex 3 {m}
  -2.8421709430404e-014, 1.77635683940025e-015, 3.048; !- X,Y,Z Vertex 4 {m}

OS:ThermalZone,
  {0a3c6279-7c03-4643-a8b0-8a0232b455fe}, !- Handle
  Zone LargeHotel Banquet A end_a - Story Ground, !- Name
  1,                                      !- Multiplier
  ,                                       !- Ceiling Height {m}
  ,                                       !- Volume {m3}
  ,                                       !- Floor Area {m2}
  ,                                       !- Zone Inside Convection Algorithm
  ,                                       !- Zone Outside Convection Algorithm
  ,                                       !- Zone Conditioning Equipment List Name
  {bc00b252-0d83-4e60-b80d-6c5216b656c0}, !- Zone Air Inlet Port List
  {ba455593-37f7-4709-aad9-aa6c58e82162}, !- Zone Air Exhaust Port List
  {a133e1c1-9829-429c-996a-6c8047746c38}, !- Zone Air Node Name
  {25fc004b-216b-49a6-bf11-b494b53ec340}, !- Zone Return Air Port List
  ,                                       !- Primary Daylighting Control Name
  ,                                       !- Fraction of Zone Controlled by Primary Daylighting Control
  ,                                       !- Secondary Daylighting Control Name
  ,                                       !- Fraction of Zone Controlled by Secondary Daylighting Control
  ,                                       !- Illuminance Map Name
  ,                                       !- Group Rendering Name
  ,                                       !- Thermostat Name
  No;                                     !- Use Ideal Air Loads

OS:Node,
  {1e7fdb6e-4e9f-420b-9ebf-fdaed883c604}, !- Handle
  Node 1,                                 !- Name
  {a133e1c1-9829-429c-996a-6c8047746c38}, !- Inlet Port
  ;                                       !- Outlet Port

OS:Connection,
  {a133e1c1-9829-429c-996a-6c8047746c38}, !- Handle
  {2416f152-1b55-4c7c-b035-5e573d8d1319}, !- Name
  {0a3c6279-7c03-4643-a8b0-8a0232b455fe}, !- Source Object
  11,                                     !- Outlet Port
  {1e7fdb6e-4e9f-420b-9ebf-fdaed883c604}, !- Target Object
  2;                                      !- Inlet Port

OS:PortList,
  {bc00b252-0d83-4e60-b80d-6c5216b656c0}, !- Handle
  {6229f80f-2ecf-467f-8adc-e74d9b72a067}, !- Name
  {0a3c6279-7c03-4643-a8b0-8a0232b455fe}; !- HVAC Component

OS:PortList,
  {ba455593-37f7-4709-aad9-aa6c58e82162}, !- Handle
  {920542d5-b9cb-40e8-ab07-57f7a9df2b86}, !- Name
  {0a3c6279-7c03-4643-a8b0-8a0232b455fe}; !- HVAC Component

OS:PortList,
  {25fc004b-216b-49a6-bf11-b494b53ec340}, !- Handle
  {992811da-85a8-4990-895c-9883bfc8d84b}, !- Name
  {0a3c6279-7c03-4643-a8b0-8a0232b455fe}; !- HVAC Component

OS:Sizing:Zone,
  {c2b4afaf-af56-447a-821a-b6df6645dcbf}, !- Handle
  {0a3c6279-7c03-4643-a8b0-8a0232b455fe}, !- Zone or ZoneList Name
  SupplyAirTemperature,                   !- Zone Cooling Design Supply Air Temperature Input Method
  14,                                     !- Zone Cooling Design Supply Air Temperature {C}
  11.11,                                  !- Zone Cooling Design Supply Air Temperature Difference {deltaC}
  SupplyAirTemperature,                   !- Zone Heating Design Supply Air Temperature Input Method
  40,                                     !- Zone Heating Design Supply Air Temperature {C}
  11.11,                                  !- Zone Heating Design Supply Air Temperature Difference {deltaC}
  0.0085,                                 !- Zone Cooling Design Supply Air Humidity Ratio {kg-H2O/kg-air}
  0.008,                                  !- Zone Heating Design Supply Air Humidity Ratio {kg-H2O/kg-air}
  ,                                       !- Zone Heating Sizing Factor
  ,                                       !- Zone Cooling Sizing Factor
  DesignDay,                              !- Cooling Design Air Flow Method
  ,                                       !- Cooling Design Air Flow Rate {m3/s}
  ,                                       !- Cooling Minimum Air Flow per Zone Floor Area {m3/s-m2}
  ,                                       !- Cooling Minimum Air Flow {m3/s}
  ,                                       !- Cooling Minimum Air Flow Fraction
  DesignDay,                              !- Heating Design Air Flow Method
  ,                                       !- Heating Design Air Flow Rate {m3/s}
  ,                                       !- Heating Maximum Air Flow per Zone Floor Area {m3/s-m2}
  ,                                       !- Heating Maximum Air Flow {m3/s}
  ,                                       !- Heating Maximum Air Flow Fraction
  ,                                       !- Design Zone Air Distribution Effectiveness in Cooling Mode
  ,                                       !- Design Zone Air Distribution Effectiveness in Heating Mode
  No,                                     !- Account for Dedicated Outdoor Air System
  NeutralSupplyAir,                       !- Dedicated Outdoor Air System Control Strategy
  autosize,                               !- Dedicated Outdoor Air Low Setpoint Temperature for Design {C}
  autosize;                               !- Dedicated Outdoor Air High Setpoint Temperature for Design {C}

OS:ZoneHVAC:EquipmentList,
  {99266424-9cc5-4663-aece-6f636e6e3156}, !- Handle
  Zone HVAC Equipment List 1,             !- Name
  {0a3c6279-7c03-4643-a8b0-8a0232b455fe}; !- Thermal Zone

OS:Space,
  {e83b0b70-9f61-4d66-971c-a417b9e54b03}, !- Handle
  LargeHotel Banquet B end_a - Story Ground, !- Name
  {48eb3746-bd8c-4227-a2ef-3c28d875402a}, !- Space Type Name
  ,                                       !- Default Construction Set Name
  ,                                       !- Default Schedule Set Name
  -0,                                     !- Direction of Relative North {deg}
  -29.3507163920623,                      !- X Origin {m}
  -1.18304242981613,                      !- Y Origin {m}
  0,                                      !- Z Origin {m}
  {c8293f0f-bce4-4c83-8ff0-5d290596c9ec}, !- Building Story Name
  {784e7e1c-a640-4d1e-a937-c2ae834d1474}; !- Thermal Zone Name

OS:Surface,
  {c33cfaf6-6e45-468b-a731-aff1e22bd407}, !- Handle
  Surface 7,                              !- Name
  Floor,                                  !- Surface Type
  ,                                       !- Construction Name
  {e83b0b70-9f61-4d66-971c-a417b9e54b03}, !- Space Name
  Ground,                                 !- Outside Boundary Condition
  ,                                       !- Outside Boundary Condition Object
  NoSun,                                  !- Sun Exposure
  NoWind,                                 !- Wind Exposure
  ,                                       !- View Factor to Ground
  ,                                       !- Number of Vertices
  -2.8421709430404e-014, 1.55431223447522e-015, 0, !- X,Y,Z Vertex 1 {m}
  -2.8421709430404e-014, 2.36608485963226, 0, !- X,Y,Z Vertex 2 {m}
  4.57199999999997, 2.36608485963226, 0,  !- X,Y,Z Vertex 3 {m}
  4.57199999999997, 1.55431223447522e-015, 0; !- X,Y,Z Vertex 4 {m}

OS:Surface,
  {81090355-57c0-4335-9b4d-5d19544b4444}, !- Handle
  Surface 8,                              !- Name
  Wall,                                   !- Surface Type
  ,                                       !- Construction Name
  {e83b0b70-9f61-4d66-971c-a417b9e54b03}, !- Space Name
  Outdoors,                               !- Outside Boundary Condition
  ,                                       !- Outside Boundary Condition Object
  SunExposed,                             !- Sun Exposure
  WindExposed,                            !- Wind Exposure
  ,                                       !- View Factor to Ground
  ,                                       !- Number of Vertices
  -2.8421709430404e-014, 2.36608485963226, 3.048, !- X,Y,Z Vertex 1 {m}
  -2.8421709430404e-014, 2.36608485963226, 0, !- X,Y,Z Vertex 2 {m}
  -2.8421709430404e-014, 1.55431223447522e-015, 0, !- X,Y,Z Vertex 3 {m}
  -2.8421709430404e-014, 1.55431223447522e-015, 3.048; !- X,Y,Z Vertex 4 {m}

OS:Surface,
  {8b75a0a1-b8f4-4652-bbb6-cfd92aae4175}, !- Handle
  Surface 9,                              !- Name
  Wall,                                   !- Surface Type
  ,                                       !- Construction Name
  {e83b0b70-9f61-4d66-971c-a417b9e54b03}, !- Space Name
  Surface,                                !- Outside Boundary Condition
  {0dc19cb9-00cc-4aa4-b6ef-2395bc56a1a1}, !- Outside Boundary Condition Object
  NoSun,                                  !- Sun Exposure
  NoWind,                                 !- Wind Exposure
  ,                                       !- View Factor to Ground
  ,                                       !- Number of Vertices
  4.57199999999997, 2.36608485963226, 3.048, !- X,Y,Z Vertex 1 {m}
  4.57199999999997, 2.36608485963226, 0,  !- X,Y,Z Vertex 2 {m}
  -2.8421709430404e-014, 2.36608485963226, 0, !- X,Y,Z Vertex 3 {m}
  -2.8421709430404e-014, 2.36608485963226, 3.048; !- X,Y,Z Vertex 4 {m}

OS:Surface,
  {1806414f-c7b0-42f9-a71b-1946b8bd727b}, !- Handle
  Surface 10,                             !- Name
  Wall,                                   !- Surface Type
  ,                                       !- Construction Name
  {e83b0b70-9f61-4d66-971c-a417b9e54b03}, !- Space Name
  Surface,                                !- Outside Boundary Condition
  {845878a9-46be-488e-9062-6efce6715a7a}, !- Outside Boundary Condition Object
  NoSun,                                  !- Sun Exposure
  NoWind,                                 !- Wind Exposure
  ,                                       !- View Factor to Ground
  ,                                       !- Number of Vertices
  4.57199999999997, 1.55431223447522e-015, 3.048, !- X,Y,Z Vertex 1 {m}
  4.57199999999997, 1.55431223447522e-015, 0, !- X,Y,Z Vertex 2 {m}
  4.57199999999997, 2.36608485963226, 0,  !- X,Y,Z Vertex 3 {m}
  4.57199999999997, 2.36608485963226, 3.048; !- X,Y,Z Vertex 4 {m}

OS:Surface,
  {673609df-bf57-47fc-bd1a-c586c76bfc25}, !- Handle
  Surface 11,                             !- Name
  Wall,                                   !- Surface Type
  ,                                       !- Construction Name
  {e83b0b70-9f61-4d66-971c-a417b9e54b03}, !- Space Name
  Surface,                                !- Outside Boundary Condition
  {60dc2ddd-196b-49f9-84ba-f1a8dbdf203b}, !- Outside Boundary Condition Object
  NoSun,                                  !- Sun Exposure
  NoWind,                                 !- Wind Exposure
  ,                                       !- View Factor to Ground
  ,                                       !- Number of Vertices
  -2.8421709430404e-014, 1.55431223447522e-015, 3.048, !- X,Y,Z Vertex 1 {m}
  -2.8421709430404e-014, 1.55431223447522e-015, 0, !- X,Y,Z Vertex 2 {m}
  4.57199999999997, 1.55431223447522e-015, 0, !- X,Y,Z Vertex 3 {m}
  4.57199999999997, 1.55431223447522e-015, 3.048; !- X,Y,Z Vertex 4 {m}

OS:Surface,
  {96e43f09-6607-4701-8fd2-7c2bceff0e0c}, !- Handle
  Surface 12,                             !- Name
  RoofCeiling,                            !- Surface Type
  ,                                       !- Construction Name
  {e83b0b70-9f61-4d66-971c-a417b9e54b03}, !- Space Name
  Adiabatic,                              !- Outside Boundary Condition
  ,                                       !- Outside Boundary Condition Object
  NoSun,                                  !- Sun Exposure
  NoWind,                                 !- Wind Exposure
  ,                                       !- View Factor to Ground
  ,                                       !- Number of Vertices
  4.57199999999997, 1.55431223447522e-015, 3.048, !- X,Y,Z Vertex 1 {m}
  4.57199999999997, 2.36608485963226, 3.048, !- X,Y,Z Vertex 2 {m}
  -2.8421709430404e-014, 2.36608485963226, 3.048, !- X,Y,Z Vertex 3 {m}
  -2.8421709430404e-014, 1.55431223447522e-015, 3.048; !- X,Y,Z Vertex 4 {m}

OS:ThermalZone,
  {784e7e1c-a640-4d1e-a937-c2ae834d1474}, !- Handle
  Zone LargeHotel Banquet B end_a - Story Ground, !- Name
  1,                                      !- Multiplier
  ,                                       !- Ceiling Height {m}
  ,                                       !- Volume {m3}
  ,                                       !- Floor Area {m2}
  ,                                       !- Zone Inside Convection Algorithm
  ,                                       !- Zone Outside Convection Algorithm
  ,                                       !- Zone Conditioning Equipment List Name
  {12e2762b-ff6e-4573-9a5c-61272421a4ec}, !- Zone Air Inlet Port List