
OS:Version,
  {94433e7e-57c0-443f-9b19-686ba9519dcd}, !- Handle
  2.7.2;                                  !- Version Identifier

OS:SpaceType,
  {11cae4c3-926d-4f8c-a356-b4a1239a18bb}, !- Handle
  MidriseApartment Apartment,             !- Name
  ,                                       !- Default Construction Set Name
  ,                                       !- Default Schedule Set Name
  {4749328a-fc21-4b36-9519-bd4cc8dbb080}, !- Group Rendering Name
  ,                                       !- Design Specification Outdoor Air Object Name
  ,                                       !- Standards Template
  MidriseApartment,                       !- Standards Building Type
  Apartment;                              !- Standards Space Type

OS:Rendering:Color,
  {4749328a-fc21-4b36-9519-bd4cc8dbb080}, !- Handle
  MidriseApartment Apartment,             !- Name
  78,                                     !- Rendering Red Value
  167,                                    !- Rendering Green Value
  222;                                    !- Rendering Blue Value

OS:SpaceType,
  {a81cd2be-4078-47bc-afa8-691edeb2ec5d}, !- Handle
  MidriseApartment Corridor,              !- Name
  ,                                       !- Default Construction Set Name
  ,                                       !- Default Schedule Set Name
  {46752c4d-68a9-4f6f-9020-316c6b65012e}, !- Group Rendering Name
  ,                                       !- Design Specification Outdoor Air Object Name
  ,                                       !- Standards Template
  MidriseApartment,                       !- Standards Building Type
  Corridor;                               !- Standards Space Type

OS:Rendering:Color,
  {46752c4d-68a9-4f6f-9020-316c6b65012e}, !- Handle
  MidriseApartment Corridor,              !- Name
  169,                                    !- Rendering Red Value
  31,                                     !- Rendering Green Value
  31;                                     !- Rendering Blue Value

OS:SpaceType,
  {ed3d26af-1079-4257-bf0e-64c3f620b955}, !- Handle
  MidriseApartment Office,                !- Name
  ,                                       !- Default Construction Set Name
  ,                                       !- Default Schedule Set Name
  {36113557-1ea1-4dfd-8e7b-3a98dbd37805}, !- Group Rendering Name
  ,                                       !- Design Specification Outdoor Air Object Name
  ,                                       !- Standards Template
  MidriseApartment,                       !- Standards Building Type
  Office;                                 !- Standards Space Type

OS:Rendering:Color,
  {36113557-1ea1-4dfd-8e7b-3a98dbd37805}, !- Handle
  MidriseApartment Office,                !- Name
  120,                                    !- Rendering Red Value
  230,                                    !- Rendering Green Value
  199;                                    !- Rendering Blue Value

OS:Building,
  {ff656b01-ffdc-44fb-bf68-4efac7bcb139}, !- Handle
  90.1-2004|MidriseApartment,             !- Name
  ,                                       !- Building Sector Type
  ,                                       !- North Axis {deg}
  ,                                       !- Nominal Floor to Floor Height {m}
  ,                                       !- Space Type Name
  ,                                       !- Default Construction Set Name
  ;                                       !- Default Schedule Set Name

OS:Site,
  {67905d1b-bd35-4fdd-8dc6-c1e683e68db7}, !- Handle
  Site 1,                                 !- Name
  ,                                       !- Latitude {deg}
  ,                                       !- Longitude {deg}
  ,                                       !- Time Zone {hr}
  ,                                       !- Elevation {m}
  ;                                       !- Terrain

OS:BuildingStory,
  {634f636d-849e-4090-967c-3e1f33c0a135}, !- Handle
  Story Ground,                           !- Name
  0,                                      !- Nominal Z Coordinate {m}
  3.048,                                  !- Nominal Floor to Floor Height {m}
  ,                                       !- Default Construction Set Name
  ,                                       !- Default Schedule Set Name
  ;                                       !- Group Rendering Name

OS:Space,
  {d0b8fca6-0936-4f7b-a6d7-9181fe9257ed}, !- Handle
  MidriseApartment Apartment A end_a - Story Ground, !- Name
  {11cae4c3-926d-4f8c-a356-b4a1239a18bb}, !- Space Type Name
  ,                                       !- Default Construction Set Name
  ,                                       !- Default Schedule Set Name
  -0,                                     !- Direction of Relative North {deg}
  -21.552614690566,                       !- X Origin {m}
  -7.83731443293308,                      !- Y Origin {m}
  0,                                      !- Z Origin {m}
  {634f636d-849e-4090-967c-3e1f33c0a135}, !- Building Story Name
  {eb202a93-86d4-47f0-aee9-7561b1a4fc80}; !- Thermal Zone Name

OS:Surface,
  {f49a22be-bad3-4fb3-8c7a-d1c2f6c97fe2}, !- Handle
  Surface 1,                              !- Name
  Floor,                                  !- Surface Type
  ,                                       !- Construction Name
  {d0b8fca6-0936-4f7b-a6d7-9181fe9257ed}, !- Space Name
  Ground,                                 !- Outside Boundary Condition
  ,                                       !- Outside Boundary Condition Object
  NoSun,                                  !- Sun Exposure
  NoWind,                                 !- Wind Exposure
  ,                                       !- View Factor to Ground
  ,                                       !- Number of Vertices
  -2.8421709430404e-014, 0, 0,            !- X,Y,Z Vertex 1 {m}
  -2.8421709430404e-014, 4.572, 0,        !- X,Y,Z Vertex 2 {m}
  4.57199999999997, 4.572, 0,             !- X,Y,Z Vertex 3 {m}
  4.57199999999997, 0, 0;                 !- X,Y,Z Vertex 4 {m}

OS:Surface,
  {f5da4938-cec1-4792-a433-2511f53d9e44}, !- Handle
  Surface 2,                              !- Name
  Wall,                                   !- Surface Type
  ,                                       !- Construction Name
  {d0b8fca6-0936-4f7b-a6d7-9181fe9257ed}, !- Space Name
  Outdoors,                               !- Outside Boundary Condition
  ,                                       !- Outside Boundary Condition Object
  SunExposed,                             !- Sun Exposure
  WindExposed,                            !- Wind Exposure
  ,                                       !- View Factor to Ground
  ,                                       !- Number of Vertices
  -2.8421709430404e-014, 4.572, 3.048,    !- X,Y,Z Vertex 1 {m}
  -2.8421709430404e-014, 4.572, 0,        !- X,Y,Z Vertex 2 {m}
  -2.8421709430404e-014, 0, 0,            !- X,Y,Z Vertex 3 {m}
  -2.8421709430404e-014, 0, 3.048;        !- X,Y,Z Vertex 4 {m}

OS:Surface,
  {caff86e1-c905-49a6-ae66-c33cdb351b86}, !- Handle
  Surface 3,                              !- Name
  Wall,                                   !- Surface Type
  ,                                       !- Construction Name
  {d0b8fca6-0936-4f7b-a6d7-9181fe9257ed}, !- Space Name
  Surface,                                !- Outside Boundary Condition
  {00418d0d-64e3-4777-8e68-bb6f7996618e}, !- Outside Boundary Condition Object
  NoSun,                                  !- Sun Exposure
  NoWind,                                 !- Wind Exposure
  ,                                       !- View Factor to Ground
  ,                                       !- Number of Vertices
  4.57199999999997, 4.572, 3.048,         !- X,Y,Z Vertex 1 {m}
  4.57199999999997, 4.572, 0,             !- X,Y,Z Vertex 2 {m}
  -2.8421709430404e-014, 4.572, 0,        !- X,Y,Z Vertex 3 {m}
  -2.8421709430404e-014, 4.572, 3.048;    !- X,Y,Z Vertex 4 {m}

OS:Surface,
  {fb34e2ae-78cc-4a84-859c-03121f06c024}, !- Handle
  Surface 4,                              !- Name
  Wall,                                   !- Surface Type
  ,                                       !- Construction Name
  {d0b8fca6-0936-4f7b-a6d7-9181fe9257ed}, !- Space Name
  Surface,                                !- Outside Boundary Condition
  {c19dfa70-ad34-49c3-a9ad-3a84c92ba02d}, !- Outside Boundary Condition Object
  NoSun,                                  !- Sun Exposure
  NoWind,                                 !- Wind Exposure
  ,                                       !- View Factor to Ground
  ,                                       !- Number of Vertices
  4.57199999999997, 0, 3.048,             !- X,Y,Z Vertex 1 {m}
  4.57199999999997, 0, 0,                 !- X,Y,Z Vertex 2 {m}
  4.57199999999997, 4.572, 0,             !- X,Y,Z Vertex 3 {m}
  4.57199999999997, 4.572, 3.048;         !- X,Y,Z Vertex 4 {m}

OS:Surface,
  {1f796c7b-8bd3-458a-9885-d58c0ea11311}, !- Handle
  Surface 5,                              !- Name
  Wall,                                   !- Surface Type
  ,                                       !- Construction Name
  {d0b8fca6-0936-4f7b-a6d7-9181fe9257ed}, !- Space Name
  Outdoors,                               !- Outside Boundary Condition
  ,                                       !- Outside Boundary Condition Object
  SunExposed,                             !- Sun Exposure
  WindExposed,                            !- Wind Exposure
  ,                                       !- View Factor to Ground
  ,                                       !- Number of Vertices
  -2.8421709430404e-014, 0, 3.048,        !- X,Y,Z Vertex 1 {m}
  -2.8421709430404e-014, 0, 0,            !- X,Y,Z Vertex 2 {m}
  4.57199999999997, 0, 0,                 !- X,Y,Z Vertex 3 {m}
  4.57199999999997, 0, 3.048;             !- X,Y,Z Vertex 4 {m}

OS:Surface,
  {50c22db6-a583-4395-a199-ac26a90ce618}, !- Handle
  Surface 6,                              !- Name
  RoofCeiling,                            !- Surface Type
  ,                                       !- Construction Name
  {d0b8fca6-0936-4f7b-a6d7-9181fe9257ed}, !- Space Name
  Adiabatic,                              !- Outside Boundary Condition
  ,                                       !- Outside Boundary Condition Object
  NoSun,                                  !- Sun Exposure
  NoWind,                                 !- Wind Exposure
  ,                                       !- View Factor to Ground
  ,                                       !- Number of Vertices
  4.57199999999997, 0, 3.048,             !- X,Y,Z Vertex 1 {m}
  4.57199999999997, 4.572, 3.048,         !- X,Y,Z Vertex 2 {m}
  -2.8421709430404e-014, 4.572, 3.048,    !- X,Y,Z Vertex 3 {m}
  -2.8421709430404e-014, 0, 3.048;        !- X,Y,Z Vertex 4 {m}

OS:ThermalZone,
  {eb202a93-86d4-47f0-aee9-7561b1a4fc80}, !- Handle
  Zone MidriseApartment Apartment A end_a - Story Ground, !- Name
  1,                                      !- Multiplier
  ,                                       !- Ceiling Height {m}
  ,                                       !- Volume {m3}
  ,                                       !- Floor Area {m2}
  ,                                       !- Zone Inside Convection Algorithm
  ,                                       !- Zone Outside Convection Algorithm
  ,                                       !- Zone Conditioning Equipment List Name
  {07861996-1d05-46a5-a13c-2692499a12eb}, !- Zone Air Inlet Port List
  {f158717d-df90-4a01-a902-368208b8e79e}, !- Zone Air Exhaust Port List
  {ccc9dd13-0867-4979-b272-c3d5cc420045}, !- Zone Air Node Name
  {0ce89b15-32e1-468c-9938-2c3443cb967e}, !- Zone Return Air Port List
  ,                                       !- Primary Daylighting Control Name
  ,                                       !- Fraction of Zone Controlled by Primary Daylighting Control
  ,                                       !- Secondary Daylighting Control Name
  ,                                       !- Fraction of Zone Controlled by Secondary Daylighting Control
  ,                                       !- Illuminance Map Name
  ,                                       !- Group Rendering Name
  ,                                       !- Thermostat Name
  No;                                     !- Use Ideal Air Loads

OS:Node,
  {67872536-63b3-4fa4-a380-faee530ee2c1}, !- Handle
  Node 1,                                 !- Name
  {ccc9dd13-0867-4979-b272-c3d5cc420045}, !- Inlet Port
  ;                                       !- Outlet Port

OS:Connection,
  {ccc9dd13-0867-4979-b272-c3d5cc420045}, !- Handle
  {11ae6629-b735-4256-8971-8039fb39526c}, !- Name
  {eb202a93-86d4-47f0-aee9-7561b1a4fc80}, !- Source Object
  11,                                     !- Outlet Port
  {67872536-63b3-4fa4-a380-faee530ee2c1}, !- Target Object
  2;                                      !- Inlet Port

OS:PortList,
  {07861996-1d05-46a5-a13c-2692499a12eb}, !- Handle
  {ed725033-8fb5-409f-8212-4b32f08d698a}, !- Name
  {eb202a93-86d4-47f0-aee9-7561b1a4fc80}; !- HVAC Component

OS:PortList,
  {f158717d-df90-4a01-a902-368208b8e79e}, !- Handle
  {d53a9654-85be-41a4-ad0e-ffc3a04a7862}, !- Name
  {eb202a93-86d4-47f0-aee9-7561b1a4fc80}; !- HVAC Component

OS:PortList,
  {0ce89b15-32e1-468c-9938-2c3443cb967e}, !- Handle
  {b4f05f85-9989-4e9d-acc0-db2648655a7a}, !- Name
  {eb202a93-86d4-47f0-aee9-7561b1a4fc80}; !- HVAC Component

OS:Sizing:Zone,
  {c39965f2-158b-4ec9-a0ec-e9ac93d8fbbc}, !- Handle
  {eb202a93-86d4-47f0-aee9-7561b1a4fc80}, !- Zone or ZoneList Name
  SupplyAirTemperature,                   !- Zone Cooling Design Supply Air Temperature Input Method
  14,                                     !- Zone Cooling Design Supply Air Temperature {C}
  11.11,                                  !- Zone Cooling Design Supply Air Temperature Difference {deltaC}
  SupplyAirTemperature,                   !- Zone Heating Design Supply Air Temperature Input Method
  40,                                     !- Zone Heating Design Supply Air Temperature {C}
  11.11,                                  !- Zone Heating Design Supply Air Temperature Difference {deltaC}
  0.0085,                                 !- Zone Cooling Design Supply Air Humidity Ratio {kg-H2O/kg-air}
  0.008,                                  !- Zone Heating Design Supply Air Humidity Ratio {kg-H2O/kg-air}
  ,                                       !- Zone Heating Sizing Factor
  ,                                       !- Zone Cooling Sizing Factor
  DesignDay,                              !- Cooling Design Air Flow Method
  ,                                       !- Cooling Design Air Flow Rate {m3/s}
  ,                                       !- Cooling Minimum Air Flow per Zone Floor Area {m3/s-m2}
  ,                                       !- Cooling Minimum Air Flow {m3/s}
  ,                                       !- Cooling Minimum Air Flow Fraction
  DesignDay,                              !- Heating Design Air Flow Method
  ,                                       !- Heating Design Air Flow Rate {m3/s}
  ,                                       !- Heating Maximum Air Flow per Zone Floor Area {m3/s-m2}
  ,                                       !- Heating Maximum Air Flow {m3/s}
  ,                                       !- Heating Maximum Air Flow Fraction
  ,                                       !- Design Zone Air Distribution Effectiveness in Cooling Mode
  ,                                       !- Design Zone Air Distribution Effectiveness in Heating Mode
  No,                                     !- Account for Dedicated Outdoor Air System
  NeutralSupplyAir,                       !- Dedicated Outdoor Air System Control Strategy
  autosize,                               !- Dedicated Outdoor Air Low Setpoint Temperature for Design {C}
  autosize;                               !- Dedicated Outdoor Air High Setpoint Temperature for Design {C}

OS:ZoneHVAC:EquipmentList,
  {a5db017a-1df3-4889-a743-01c75fdbbde1}, !- Handle
  Zone HVAC Equipment List 1,             !- Name
  {eb202a93-86d4-47f0-aee9-7561b1a4fc80}; !- Thermal Zone

OS:Space,
  {94208e25-340f-406f-9d76-0faa1606684b}, !- Handle
  MidriseApartment Apartment B end_a - Story Ground, !- Name
  {11cae4c3-926d-4f8c-a356-b4a1239a18bb}, !- Space Type Name
  ,                                       !- Default Construction Set Name
  ,                                       !- Default Schedule Set Name
  -0,                                     !- Direction of Relative North {deg}
  -21.552614690566,                       !- X Origin {m}
  -3.26531443293308,                      !- Y Origin {m}
  0,                                      !- Z Origin {m}
  {634f636d-849e-4090-967c-3e1f33c0a135}, !- Building Story Name
  {181cc119-5d78-4929-9aef-202fcc5ea724}; !- Thermal Zone Name

OS:Surface,
  {d7ce7f2f-105a-45ba-ad31-a910a060819e}, !- Handle
  Surface 7,                              !- Name
  Floor,                                  !- Surface Type
  ,                                       !- Construction Name
  {94208e25-340f-406f-9d76-0faa1606684b}, !- Space Name
  Ground,                                 !- Outside Boundary Condition
  ,                                       !- Outside Boundary Condition Object
  NoSun,                                  !- Sun Exposure
  NoWind,                                 !- Wind Exposure
  ,                                       !- View Factor to Ground
  ,                                       !- Number of Vertices
  -2.8421709430404e-014, -4.44089209850063e-016, 0, !- X,Y,Z Vertex 1 {m}
  -2.8421709430404e-014, 6.53062886586616, 0, !- X,Y,Z Vertex 2 {m}
  4.57199999999997, 6.53062886586616, 0,  !- X,Y,Z Vertex 3 {m}
  4.57199999999997, -4.44089209850063e-016, 0; !- X,Y,Z Vertex 4 {m}

OS:Surface,
  {4778a829-92ab-4bbf-bf09-67522a63e654}, !- Handle
  Surface 8,                              !- Name
  Wall,                                   !- Surface Type
  ,                                       !- Construction Name
  {94208e25-340f-406f-9d76-0faa1606684b}, !- Space Name
  Outdoors,                               !- Outside Boundary Condition
  ,                                       !- Outside Boundary Condition Object
  SunExposed,                             !- Sun Exposure
  WindExposed,                            !- Wind Exposure
  ,                                       !- View Factor to Ground
  ,                                       !- Number of Vertices
  -2.8421709430404e-014, 6.53062886586616, 3.048, !- X,Y,Z Vertex 1 {m}
  -2.8421709430404e-014, 6.53062886586616, 0, !- X,Y,Z Vertex 2 {m}
  -2.8421709430404e-014, -4.44089209850063e-016, 0, !- X,Y,Z Vertex 3 {m}
  -2.8421709430404e-014, -4.44089209850063e-016, 3.048; !- X,Y,Z Vertex 4 {m}

OS:Surface,
  {661a1bbc-5774-44ba-9845-28fe48591de0}, !- Handle
  Surface 9,                              !- Name
  Wall,                                   !- Surface Type
  ,                                       !- Construction Name
  {94208e25-340f-406f-9d76-0faa1606684b}, !- Space Name
  Surface,                                !- Outside Boundary Condition
  {af0229b2-8f94-4781-b4be-a5cbe778a48d}, !- Outside Boundary Condition Object
  NoSun,                                  !- Sun Exposure
  NoWind,                                 !- Wind Exposure
  ,                                       !- View Factor to Ground
  ,                                       !- Number of Vertices
  4.57199999999997, 6.53062886586616, 3.048, !- X,Y,Z Vertex 1 {m}
  4.57199999999997, 6.53062886586616, 0,  !- X,Y,Z Vertex 2 {m}
  -2.8421709430404e-014, 6.53062886586616, 0, !- X,Y,Z Vertex 3 {m}
  -2.8421709430404e-014, 6.53062886586616, 3.048; !- X,Y,Z Vertex 4 {m}

OS:Surface,
  {5fbfc133-4499-4b45-892c-cac6b9497034}, !- Handle
  Surface 10,                             !- Name
  Wall,                                   !- Surface Type
  ,                                       !- Construction Name
  {94208e25-340f-406f-9d76-0faa1606684b}, !- Space Name
  Surface,                                !- Outside Boundary Condition
  {ea301f2e-c6b2-4dd9-8978-a0de0c7cbb10}, !- Outside Boundary Condition Object
  NoSun,                                  !- Sun Exposure
  NoWind,                                 !- Wind Exposure
  ,                                       !- View Factor to Ground
  ,                                       !- Number of Vertices
  4.57199999999997, -4.44089209850063e-016, 3.048, !- X,Y,Z Vertex 1 {m}
  4.57199999999997, -4.44089209850063e-016, 0, !- X,Y,Z Vertex 2 {m}
  4.57199999999997, 6.53062886586616, 0,  !- X,Y,Z Vertex 3 {m}
  4.57199999999997, 6.53062886586616, 3.048; !- X,Y,Z Vertex 4 {m}

OS:Surface,
  {00418d0d-64e3-4777-8e68-bb6f7996618e}, !- Handle
  Surface 11,                             !- Name
  Wall,                                   !- Surface Type
  ,                                       !- Construction Name
  {94208e25-340f-406f-9d76-0faa1606684b}, !- Space Name
  Surface,                                !- Outside Boundary Condition
  {caff86e1-c905-49a6-ae66-c33cdb351b86}, !- Outside Boundary Condition Object
  NoSun,                                  !- Sun Exposure
  NoWind,                                 !- Wind Exposure
  ,                                       !- View Factor to Ground
  ,                                       !- Number of Vertices
  -2.8421709430404e-014, -4.44089209850063e-016, 3.048, !- X,Y,Z Vertex 1 {m}
  -2.8421709430404e-014, -4.44089209850063e-016, 0, !- X,Y,Z Vertex 2 {m}
  4.57199999999997, -4.44089209850063e-016, 0, !- X,Y,Z Vertex 3 {m}
  4.57199999999997, -4.44089209850063e-016, 3.048; !- X,Y,Z Vertex 4 {m}

OS:Surface,
  {a83052f3-9571-4cb8-b5b3-868c7d670898}, !- Handle
  Surface 12,                             !- Name
  RoofCeiling,                            !- Surface Type
  ,                                       !- Construction Name
  {94208e25-340f-406f-9d76-0faa1606684b}, !- Space Name
  Adiabatic,                              !- Outside Boundary Condition
  ,                                       !- Outside Boundary Condition Object
  NoSun,                                  !- Sun Exposure
  NoWind,                                 !- Wind Exposure
  ,                                       !- View Factor to Ground
  ,                                       !- Number of Vertices
  4.57199999999997, -4.44089209850063e-016, 3.048, !- X,Y,Z Vertex 1 {m}
  4.57199999999997, 6.53062886586616, 3.048, !- X,Y,Z Vertex 2 {m}
  -2.8421709430404e-014, 6.53062886586616, 3.048, !- X,Y,Z Vertex 3 {m}
  -2.8421709430404e-014, -4.44089209850063e-016, 3.048; !- X,Y,Z Vertex 4 {m}

OS:ThermalZone,
  {181cc119-5d78-4929-9aef-202fcc5ea724}, !- Handle
  Zone MidriseApartment Apartment B end_a - Story Ground, !- Name
  1,                                      !- Multiplier
  ,                                       !- Ceiling Height {m}
  ,                                       !- Volume {m3}
  ,                                       !- Floor Area {m2}
  ,                                       !- Zone Inside Convection Algorithm
  ,                                       !- Zone Outside Convection Algorithm
  ,                                       !- Zone Conditioning Equipment List Name
  {f323ce74-294e-40fc-a712-2cefe8deed5e}, !- Zone Air Inlet Port List
  {c29030b3-2d12-44cd-8c10-054eee15caeb}, !- Zone Air Exhaust Port List
  {59aa0a50-d662-40b4-9be1-5a3b625e9a67}, !- Zone Air Node Name
  {6f2fd85f-7ba5-4b9e-a339-0c2386744c9b}, !- Zone Return Air Port List
  ,                                       !- Primary Daylighting Control Name
  ,                                       !- Fraction of Zone Controlled by Primary Daylighting Control
  ,                                       !- Secondary Daylighting Control Name
  ,                                       !- Fraction of Zone Controlled by Secondary Daylighting Control
  ,                                       !- Illuminance Map Name
  ,                                       !- Group Rendering Name
  ,                                       !- Thermostat Name
  No;                                     !- Use Ideal Air Loads

OS:Node,
  {42c8e758-b939-419d-a6a4-671f5db7a177}, !- Handle
  Node 2,                                 !- Name
  {59aa0a50-d662-40b4-9be1-5a3b625e9a67}, !- Inlet Port
  ;                                       !- Outlet Port

OS:Connection,
  {59aa0a50-d662-40b4-9be1-5a3b625e9a67}, !- Handle
  {55207816-6d9b-4d81-9bee-faea3e93b1f3}, !- Name
  {181cc119-5d78-4929-9aef-202fcc5ea724}, !- Source Object
  11,                                     !- Outlet Port
  {42c8e758-b939-419d-a6a4-671f5db7a177}, !- Target Object
  2;                                      !- Inlet Port

OS:PortList,
  {f323ce74-294e-40fc-a712-2cefe8deed5e}, !- Handle
  {eeeae949-9868-40b9-965a-ba6dda0b5da3}, !- Name
  {181cc119-5d78-4929-9aef-202fcc5ea724}; !- HVAC Component

OS:PortList,
  {c29030b3-2d12-44cd-8c10-054eee15caeb}, !- Handle
  {35258ab8-ebd8-4b89-abbf-688857cf1111}, !- Name
  {181cc119-5d78-4929-9aef-202fcc5ea724}; !- HVAC Component

OS:PortList,
  {6f2fd85f-7ba5-4b9e-a339-0c2386744c9b}, !- Handle
  {b498def8-a86c-4bfc-9dce-b9563b58694a}, !- Name
  {181cc119-5d78-4929-9aef-202fcc5ea724}; !- HVAC Component

OS:Sizing:Zone,
  {8027d8e6-595f-4b5c-8d0b-7814c5ee9fe5}, !- Handle
  {181cc119-5d78-4929-9aef-202fcc5ea724}, !- Zone or ZoneList Name
  SupplyAirTemperature,                   !- Zone Cooling Design Supply Air Temperature Input Method
  14,                                     !- Zone Cooling Design Supply Air Temperature {C}
  11.11,                                  !- Zone Cooling Design Supply Air Temperature Difference {deltaC}
  SupplyAirTemperature,                   !- Zone Heating Design Supply Air Temperature Input Method
  40,                                     !- Zone Heating Design Supply Air Temperature {C}
  11.11,                                  !- Zone Heating Design Supply Air Temperature Difference {deltaC}
  0.0085,                                 !- Zone Cooling Design Supply Air Humidity Ratio {kg-H2O/kg-air}
  0.008,                                  !- Zone Heating Design Supply Air Humidity Ratio {kg-H2O/kg-air}
  ,                                       !- Zone Heating Sizing Factor
  ,                                       !- Zone Cooling Sizing Factor
  DesignDay,                              !- Cooling Design Air Flow Method
  ,                                       !- Cooling Design Air Flow Rate {m3/s}
  ,                                       !- Cooling Minimum Air Flow per Zone Floor Area {m3/s-m2}
  ,                                       !- Cooling Minimum Air Flow {m3/s}
  ,                                       !- Cooling Minimum Air Flow Fraction
  DesignDay,                              !- Heating Design Air Flow Method
  ,                                       !- Heating Design Air Flow Rate {m3/s}
  ,                                       !- Heating Maximum Air Flow per Zone Floor Area {m3/s-m2}
  ,                                       !- Heating Maximum Air Flow {m3/s}
  ,                                       !- Heating Maximum Air Flow Fraction
  ,                                       !- Design Zone Air Distribution Effectiveness in Cooling Mode
  ,                                       !- Design Zone Air Distribution Effectiveness in Heating Mode
  No,                                     !- Account for Dedicated Outdoor Air System
  NeutralSupplyAir,                       !- Dedicated Outdoor Air System Control Strategy
  autosize,                               !- Dedicated Outdoor Air Low Setpoint Temperature for Design {C}
  autosize;                               !- Dedicated Outdoor Air High Setpoint Temperature for Design {C}

OS:ZoneHVAC:EquipmentList,
  {c46ce787-636f-461b-8b8d-89b31837cd45}, !- Handle
  Zone HVAC Equipment List 2,             !- Name
  {181cc119-5d78-4929-9aef-202fcc5ea724}; !- Thermal Zone

OS:Space,
  {f7c48efa-2ebb-4671-816e-3516305ab0cc}, !- Handle
  MidriseApartment Apartment C end_a - Story Ground, !- Name
  {11cae4c3-926d-4f8c-a356-b4a1239a18bb}, !- Space Type Name
  ,                                       !- Default Construction Set Name
  ,                                       !- Default Schedule Set Name
  -0,                                     !- Direction of Relative North {deg}
  -21.552614690566,                       !- X Origin {m}
  3.26531443293308,                       !- Y Origin {m}
  0,                                      !- Z Origin {m}
  {634f636d-849e-4090-967c-3e1f33c0a135}, !- Building Story Name
  {5702c36a-23e3-43b5-ad64-7f2d728491bf}; !- Thermal Zone Name

OS:Surface,
  {4a7535b3-504f-424b-b07c-c3b176a9ca32}, !- Handle
  Surface 13,                             !- Name
  Floor,                                  !- Surface Type
  ,                                       !- Construction Name
  {f7c48efa-2ebb-4671-816e-3516305ab0cc}, !- Space Name
  Ground,                                 !- Outside Boundary Condition
  ,                                       !- Outside Boundary Condition Object
  NoSun,                                  !- Sun Exposure
  NoWind,                                 !- Wind Exposure
  ,                                       !- View Factor to Ground
  ,                                       !- Number of Vertices
  -2.8421709430404e-014, 4.44089209850063e-016, 0, !- X,Y,Z Vertex 1 {m}
  -2.8421709430404e-014, 4.572, 0,        !- X,Y,Z Vertex 2 {m}
  4.57199999999997, 4.572, 0,             !- X,Y,Z Vertex 3 {m}
  4.57199999999997, 4.44089209850063e-016, 0; !- X,Y,Z Vertex 4 {m}

OS:Surface,
  {35350c82-d6f0-43fa-8cc1-3602b44d1d8b}, !- Handle
  Surface 14,                             !- Name
  Wall,                                   !- Surface Type
  ,                                       !- Construction Name
  {f7c48efa-2ebb-4671-816e-3516305ab0cc}, !- Space Name