
OS:Version,
  {8a00d635-d1ac-44fb-aa93-bce737e2612f}, !- Handle
  3.0.1;                                  !- Version Identifier

OS:WeatherFile,
  {74fbf9ce-505b-4b49-aeb2-9f6cd98ea378}, !- Handle
  Buffalo Niagara Intl Ap,                !- City
  NY,                                     !- State Province Region
  USA,                                    !- Country
  TMY3,                                   !- Data Source
  725280,                                 !- WMO Number
  42.93,                                  !- Latitude {deg}
  -78.73,                                 !- Longitude {deg}
  -5,                                     !- Time Zone {hr}
  215,                                    !- Elevation {m}
  /Users/dgoldwas/Documents/GitHub/URBANopt/urbanopt-example-geojson-project/weather/USA_NY_Buffalo-Greater.Buffalo.Intl.AP.725280_TMY3.epw, !- Url
  6B50E0FF;                               !- Checksum

OS:YearDescription,
  {4ae9b851-6424-4b73-acd5-fafee80fd1c0}, !- Handle
  ,                                       !- Calendar Year
  Monday;                                 !- Day of Week for Start Day

OS:Site,
  {85a4c720-0ec9-4358-9ca6-b0a1739ac0c9}, !- Handle
  unit_1 Buffalo Niagara Intl Ap_NY_USA,  !- Name
  42.93,                                  !- Latitude {deg}
  -78.73,                                 !- Longitude {deg}
  -5,                                     !- Time Zone {hr}
  215,                                    !- Elevation {m}
  Suburbs;                                !- Terrain

OS:ClimateZones,
  {91f00121-65d2-4a44-974a-6a66a5db6906}, !- Handle
  Building America,                       !- Climate Zone Institution Name 1
  ,                                       !- Climate Zone Document Name 1
  0,                                      !- Climate Zone Document Year 1
  Cold;                                   !- Climate Zone Value 1

OS:RunPeriodControl:DaylightSavingTime,
  {6613e233-9e7b-4d4f-8835-22b387d7be4b}, !- Handle
  Mar 12,                                 !- Start Date
  Nov 5;                                  !- End Date

OS:Site:GroundTemperature:Shallow,
  {85677d09-3f9e-4a87-adad-bcf4c48279b6}, !- Handle
  4.30207395723831,                       !- January Surface Ground Temperature {C}
  2.29327249652502,                       !- February Surface Ground Temperature {C}
  2.1324004715605,                        !- March Surface Ground Temperature {C}
  3.08567940719289,                       !- April Surface Ground Temperature {C}
  6.91256312497529,                       !- May Surface Ground Temperature {C}
  10.7216195949507,                       !- June Surface Ground Temperature {C}
  14.0238679822575,                       !- July Surface Ground Temperature {C}
  16.1157611184725,                       !- August Surface Ground Temperature {C}
  16.2934789303462,                       !- September Surface Ground Temperature {C}
  14.5920754632848,                       !- October Surface Ground Temperature {C}
  11.3740363486531,                       !- November Surface Ground Temperature {C}
  7.68182621661677;                       !- December Surface Ground Temperature {C}

OS:SimulationControl,
  {197d5845-fa1b-48d3-8b65-657e6ab0c158}, !- Handle
  ,                                       !- Do Zone Sizing Calculation
  ,                                       !- Do System Sizing Calculation
  ,                                       !- Do Plant Sizing Calculation
  No;                                     !- Run Simulation for Sizing Periods

OS:Timestep,
  {7b07d68a-55e8-4062-abec-b5a6444e0ea1}, !- Handle
  1;                                      !- Number of Timesteps per Hour

OS:ShadowCalculation,
  {02d703ab-0dba-4d80-9981-1b4a744dd3f2}, !- Handle
  PolygonClipping,                        !- Shading Calculation Method
  ,                                       !- Shading Calculation Update Frequency Method
  20,                                     !- Shading Calculation Update Frequency
  200,                                    !- Maximum Figures in Shadow Overlap Calculations
  ,                                       !- Polygon Clipping Algorithm
  512,                                    !- Pixel Counting Resolution
  ,                                       !- Sky Diffuse Modeling Algorithm
  No,                                     !- Output External Shading Calculation Results
  No,                                     !- Disable Self-Shading Within Shading Zone Groups
  No;                                     !- Disable Self-Shading From Shading Zone Groups to Other Zones

OS:SurfaceConvectionAlgorithm:Outside,
  {80780d56-6000-4f6a-b954-8dbb07c5694b}, !- Handle
  DOE-2;                                  !- Algorithm

OS:SurfaceConvectionAlgorithm:Inside,
  {f5374e31-085c-4a51-9fe6-ef3439c933aa}, !- Handle
  TARP;                                   !- Algorithm

OS:ZoneCapacitanceMultiplier:ResearchSpecial,
  {891093ea-a286-460f-b07d-04d50096fab0}, !- Handle
  ,                                       !- Temperature Capacity Multiplier
  15,                                     !- Humidity Capacity Multiplier
  ;                                       !- Carbon Dioxide Capacity Multiplier

OS:ConvergenceLimits,
  {4d86eab0-b9a0-4b0c-b749-bb585dfa028f}, !- Handle
  0;                                      !- Minimum System Timestep {minutes}

OS:RunPeriod,
  {66653e88-332d-4a71-b93a-687bcb2144e7}, !- Handle
  unit_1 Run Period 1,                    !- Name
  1,                                      !- Begin Month
  1,                                      !- Begin Day of Month
  12,                                     !- End Month
  31,                                     !- End Day of Month
  ,                                       !- Use Weather File Holidays and Special Days
  ,                                       !- Use Weather File Daylight Saving Period
  ,                                       !- Apply Weekend Holiday Rule
  ,                                       !- Use Weather File Rain Indicators
  ,                                       !- Use Weather File Snow Indicators
  ;                                       !- Number of Times Runperiod to be Repeated

OS:ThermalZone,
  {dd75ee43-768d-4ae4-9798-b93fe2aa5f56}, !- Handle
  unit_1 living space,                    !- Name
  ,                                       !- Multiplier
  ,                                       !- Ceiling Height {m}
  1210.60182550118,                       !- Volume {m3}
  ,                                       !- Floor Area {m2}
  ,                                       !- Zone Inside Convection Algorithm
  ,                                       !- Zone Outside Convection Algorithm
  ,                                       !- Zone Conditioning Equipment List Name
  {4973d52a-522e-40ce-bd9e-db147e37066b}, !- Zone Air Inlet Port List
  {8dcc03a5-96a5-43d8-9ee2-de1bfb7c4a48}, !- Zone Air Exhaust Port List
  {d0602401-7b4c-43be-9de2-e62c91cd2833}, !- Zone Air Node Name
  {e2c4fa08-f67e-41cb-91e3-3d7a72b79f90}, !- Zone Return Air Port List
  ,                                       !- Primary Daylighting Control Name
  ,                                       !- Fraction of Zone Controlled by Primary Daylighting Control
  ,                                       !- Secondary Daylighting Control Name
  ,                                       !- Fraction of Zone Controlled by Secondary Daylighting Control
  ,                                       !- Illuminance Map Name
  ,                                       !- Group Rendering Name
  {26115319-6dca-4d80-be74-857ec0d1e8ef}, !- Thermostat Name
  No;                                     !- Use Ideal Air Loads

OS:Node,
  {b31cd870-4e36-400c-9bec-77d2a812a66d}, !- Handle
  unit_1 Node 1,                          !- Name
  {d0602401-7b4c-43be-9de2-e62c91cd2833}, !- Inlet Port
  ;                                       !- Outlet Port

OS:Connection,
  {d0602401-7b4c-43be-9de2-e62c91cd2833}, !- Handle
  unit_1 {2914e336-62f5-40fa-b37f-0beff5138eff}, !- Name
  {dd75ee43-768d-4ae4-9798-b93fe2aa5f56}, !- Source Object
  11,                                     !- Outlet Port
  {b31cd870-4e36-400c-9bec-77d2a812a66d}, !- Target Object
  2;                                      !- Inlet Port

OS:PortList,
  {4973d52a-522e-40ce-bd9e-db147e37066b}, !- Handle
  unit_1 {e69e8fd9-f72e-4867-a208-51379c5c0aa0}, !- Name
  {dd75ee43-768d-4ae4-9798-b93fe2aa5f56}, !- HVAC Component
  {3316980d-f67e-4ba4-b05e-fbdfec0c15e4}, !- Port 1
  {22d9e8ac-cc4b-4342-810a-67ee5d05a222}, !- Port 2
  {4ed02cbc-6f60-4d67-821d-e4130e8d470c}; !- Port 3

OS:PortList,
  {8dcc03a5-96a5-43d8-9ee2-de1bfb7c4a48}, !- Handle
  unit_1 {53790992-273d-4b1a-ad60-0d69c6b9f037}, !- Name
  {dd75ee43-768d-4ae4-9798-b93fe2aa5f56}, !- HVAC Component
  {57f5b1f6-a8bc-4c1e-9d77-3a3decca7e68}; !- Port 1

OS:PortList,
  {e2c4fa08-f67e-41cb-91e3-3d7a72b79f90}, !- Handle
  unit_1 {bd20dca5-3ddf-490f-9233-714699028a12}, !- Name
  {dd75ee43-768d-4ae4-9798-b93fe2aa5f56}, !- HVAC Component
  {af2717b6-2327-4138-9f54-4f01c2449f84}, !- Port 1
  {68331b5d-7b3b-4062-a463-ab2cc2a88f6b}; !- Port 2

OS:Sizing:Zone,
  {92fe6862-c08e-4fba-854b-d3f652da547b}, !- Handle
  {dd75ee43-768d-4ae4-9798-b93fe2aa5f56}, !- Zone or ZoneList Name
  SupplyAirTemperature,                   !- Zone Cooling Design Supply Air Temperature Input Method
  14,                                     !- Zone Cooling Design Supply Air Temperature {C}
  11.11,                                  !- Zone Cooling Design Supply Air Temperature Difference {deltaC}
  SupplyAirTemperature,                   !- Zone Heating Design Supply Air Temperature Input Method
  40,                                     !- Zone Heating Design Supply Air Temperature {C}
  11.11,                                  !- Zone Heating Design Supply Air Temperature Difference {deltaC}
  0.0085,                                 !- Zone Cooling Design Supply Air Humidity Ratio {kg-H2O/kg-air}
  0.008,                                  !- Zone Heating Design Supply Air Humidity Ratio {kg-H2O/kg-air}
  ,                                       !- Zone Heating Sizing Factor
  ,                                       !- Zone Cooling Sizing Factor
  DesignDay,                              !- Cooling Design Air Flow Method
  ,                                       !- Cooling Design Air Flow Rate {m3/s}
  ,                                       !- Cooling Minimum Air Flow per Zone Floor Area {m3/s-m2}
  ,                                       !- Cooling Minimum Air Flow {m3/s}
  ,                                       !- Cooling Minimum Air Flow Fraction
  DesignDay,                              !- Heating Design Air Flow Method
  ,                                       !- Heating Design Air Flow Rate {m3/s}
  ,                                       !- Heating Maximum Air Flow per Zone Floor Area {m3/s-m2}
  ,                                       !- Heating Maximum Air Flow {m3/s}
  ,                                       !- Heating Maximum Air Flow Fraction
  No,                                     !- Account for Dedicated Outdoor Air System
  NeutralSupplyAir,                       !- Dedicated Outdoor Air System Control Strategy
  autosize,                               !- Dedicated Outdoor Air Low Setpoint Temperature for Design {C}
  autosize;                               !- Dedicated Outdoor Air High Setpoint Temperature for Design {C}

OS:ZoneHVAC:EquipmentList,
  {ff23ec83-6b7a-468e-8a74-57eab801f747}, !- Handle
  unit_1 Zone HVAC Equipment List 1,      !- Name
  {dd75ee43-768d-4ae4-9798-b93fe2aa5f56}, !- Thermal Zone
  ,                                       !- Load Distribution Scheme
  {f2f2e0a4-1db4-470b-bf8c-a5eb26a7c3d4}, !- Zone Equipment 1
  1,                                      !- Zone Equipment Cooling Sequence 1
  1,                                      !- Zone Equipment Heating or No-Load Sequence 1
  {1329bf37-7399-4b54-a1ed-6dce672337c6}, !- Zone Equipment Sequential Cooling Fraction Schedule Name 1
  {968b255d-ffa1-42ea-9f4f-4dc801bb9ff0}, !- Zone Equipment Sequential Heating Fraction Schedule Name 1
  {4b7491fa-2181-4bd2-832f-d2ba616709ea}, !- Zone Equipment 2
  2,                                      !- Zone Equipment Cooling Sequence 2
  2,                                      !- Zone Equipment Heating or No-Load Sequence 2
  {98b04ff7-0d9b-4d4f-9bbb-c7129a64b54c}, !- Zone Equipment Sequential Cooling Fraction Schedule Name 2
  {6c587ab9-59cf-4b25-806d-b621a222aea3}, !- Zone Equipment Sequential Heating Fraction Schedule Name 2
  {df8fe5f1-7a8a-40dd-a8b3-985528e4f77c}, !- Zone Equipment 3
  3,                                      !- Zone Equipment Cooling Sequence 3
  3,                                      !- Zone Equipment Heating or No-Load Sequence 3
  {5974c3e7-ea36-457d-b038-b002b5cd7b0d}, !- Zone Equipment Sequential Cooling Fraction Schedule Name 3
  {6992aed6-287a-4654-8a69-8049bde78af4}; !- Zone Equipment Sequential Heating Fraction Schedule Name 3

OS:Space,
  {219748c1-4d70-4ba8-baa7-e82c65587e10}, !- Handle
  unit_1 living space,                    !- Name
  {6cf05db3-ef9e-4b17-b81d-c73f17b19aab}, !- Space Type Name
  ,                                       !- Default Construction Set Name
  ,                                       !- Default Schedule Set Name
  ,                                       !- Direction of Relative North {deg}
  ,                                       !- X Origin {m}
  0,                                      !- Y Origin {m}
  ,                                       !- Z Origin {m}
  ,                                       !- Building Story Name
  {dd75ee43-768d-4ae4-9798-b93fe2aa5f56}, !- Thermal Zone Name
  ,                                       !- Part of Total Floor Area
  ,                                       !- Design Specification Outdoor Air Object Name
  {218036de-0cb3-45a4-8c28-b0f094823a11}; !- Building Unit Name

OS:SpaceType,
  {6cf05db3-ef9e-4b17-b81d-c73f17b19aab}, !- Handle
  unit_1 Space Type 1,                    !- Name
  ,                                       !- Default Construction Set Name
  ,                                       !- Default Schedule Set Name
  ,                                       !- Group Rendering Name
  ,                                       !- Design Specification Outdoor Air Object Name
  ,                                       !- Standards Template
  ,                                       !- Standards Building Type
  living space;                           !- Standards Space Type

OS:Schedule:Ruleset,
  {1612e694-7a74-46f7-9192-31c8050a56fe}, !- Handle
  unit_1 heating season,                  !- Name
  {cb869282-8c9f-491d-a5ff-5f077e40a31d}, !- Schedule Type Limits Name
  {56a932cf-4909-4601-8265-4701f4bf9caa}; !- Default Day Schedule Name

OS:Schedule:Day,
  {56a932cf-4909-4601-8265-4701f4bf9caa}, !- Handle
  unit_1 Schedule Day 1,                  !- Name
  {cb869282-8c9f-491d-a5ff-5f077e40a31d}, !- Schedule Type Limits Name
  ,                                       !- Interpolate to Timestep
  24,                                     !- Hour 1
  0,                                      !- Minute 1
  0;                                      !- Value Until Time 1

OS:Schedule:Rule,
  {8a62b24b-fe87-4363-831a-4709f72d2b53}, !- Handle
  unit_1 heating season allday ruleset1,  !- Name
  {1612e694-7a74-46f7-9192-31c8050a56fe}, !- Schedule Ruleset Name
  0,                                      !- Rule Order
  {5f29ccb2-8899-4ad4-8a96-bbb207d3d3d8}, !- Day Schedule Name
  Yes,                                    !- Apply Sunday
  Yes,                                    !- Apply Monday
  Yes,                                    !- Apply Tuesday
  Yes,                                    !- Apply Wednesday
  Yes,                                    !- Apply Thursday
  Yes,                                    !- Apply Friday
  Yes,                                    !- Apply Saturday
  DateRange,                              !- Date Specification Type
  1,                                      !- Start Month
  1,                                      !- Start Day
  12,                                     !- End Month
  31;                                     !- End Day

OS:Schedule:Day,
  {5f29ccb2-8899-4ad4-8a96-bbb207d3d3d8}, !- Handle
  unit_1 heating season allday1,          !- Name
  {cb869282-8c9f-491d-a5ff-5f077e40a31d}, !- Schedule Type Limits Name
  ,                                       !- Interpolate to Timestep
  24,                                     !- Hour 1
  0,                                      !- Minute 1
  1;                                      !- Value Until Time 1

OS:ScheduleTypeLimits,
  {cb869282-8c9f-491d-a5ff-5f077e40a31d}, !- Handle
  unit_1 OnOff,                           !- Name
  0,                                      !- Lower Limit Value
  1,                                      !- Upper Limit Value
  Discrete;                               !- Numeric Type

OS:Schedule:Ruleset,
  {053f1510-1a2d-4496-a715-097a251ab1ab}, !- Handle
  unit_1 cooling season,                  !- Name
  {cb869282-8c9f-491d-a5ff-5f077e40a31d}, !- Schedule Type Limits Name
  {cf9b4c59-6df2-4248-883f-24675b7cb6ce}; !- Default Day Schedule Name

OS:Schedule:Day,
  {cf9b4c59-6df2-4248-883f-24675b7cb6ce}, !- Handle
  unit_1 Schedule Day 2,                  !- Name
  {cb869282-8c9f-491d-a5ff-5f077e40a31d}, !- Schedule Type Limits Name
  ,                                       !- Interpolate to Timestep
  24,                                     !- Hour 1
  0,                                      !- Minute 1
  0;                                      !- Value Until Time 1

OS:Schedule:Rule,
  {834c3a83-8815-4fd9-a51e-1fc715e3a31d}, !- Handle
  unit_1 cooling season allday ruleset1,  !- Name
  {053f1510-1a2d-4496-a715-097a251ab1ab}, !- Schedule Ruleset Name
  0,                                      !- Rule Order
  {74244a42-a2a1-4d98-85e3-349865430845}, !- Day Schedule Name
  Yes,                                    !- Apply Sunday
  Yes,                                    !- Apply Monday
  Yes,                                    !- Apply Tuesday
  Yes,                                    !- Apply Wednesday
  Yes,                                    !- Apply Thursday
  Yes,                                    !- Apply Friday
  Yes,                                    !- Apply Saturday
  DateRange,                              !- Date Specification Type
  1,                                      !- Start Month
  1,                                      !- Start Day
  12,                                     !- End Month
  31;                                     !- End Day

OS:Schedule:Day,
  {74244a42-a2a1-4d98-85e3-349865430845}, !- Handle
  unit_1 cooling season allday1,          !- Name
  {cb869282-8c9f-491d-a5ff-5f077e40a31d}, !- Schedule Type Limits Name
  ,                                       !- Interpolate to Timestep
  24,                                     !- Hour 1
  0,                                      !- Minute 1
  1;                                      !- Value Until Time 1

OS:Schedule:Ruleset,
  {ea14b58d-774d-4160-8b7e-a15cda212b2f}, !- Handle
  unit_1 heating setpoint,                !- Name
  {9358e260-b388-4533-b7de-b7218bb6dfa6}, !- Schedule Type Limits Name
  {bce761a5-1f26-4ecd-8eac-87332eff708c}; !- Default Day Schedule Name

OS:Schedule:Day,
  {bce761a5-1f26-4ecd-8eac-87332eff708c}, !- Handle
  unit_1 Schedule Day 3,                  !- Name
  {9358e260-b388-4533-b7de-b7218bb6dfa6}, !- Schedule Type Limits Name
  ,                                       !- Interpolate to Timestep
  24,                                     !- Hour 1
  0,                                      !- Minute 1
  0;                                      !- Value Until Time 1

OS:Schedule:Rule,
  {285790bd-9754-4789-b9fc-7dce3d16a581}, !- Handle
  unit_1 heating setpoint allday ruleset1, !- Name
  {ea14b58d-774d-4160-8b7e-a15cda212b2f}, !- Schedule Ruleset Name
  0,                                      !- Rule Order
  {745ce340-50d2-4cdd-b4e9-22a944c678a0}, !- Day Schedule Name
  Yes,                                    !- Apply Sunday
  Yes,                                    !- Apply Monday
  Yes,                                    !- Apply Tuesday
  Yes,                                    !- Apply Wednesday
  Yes,                                    !- Apply Thursday
  Yes,                                    !- Apply Friday
  Yes,                                    !- Apply Saturday
  DateRange,                              !- Date Specification Type
  1,                                      !- Start Month
  1,                                      !- Start Day
  12,                                     !- End Month
  31;                                     !- End Day

OS:Schedule:Day,
  {745ce340-50d2-4cdd-b4e9-22a944c678a0}, !- Handle
  unit_1 heating setpoint allday1,        !- Name
  {9358e260-b388-4533-b7de-b7218bb6dfa6}, !- Schedule Type Limits Name
  ,                                       !- Interpolate to Timestep
  24,                                     !- Hour 1
  0,                                      !- Minute 1
  21.6666666666667;                       !- Value Until Time 1

OS:Schedule:Ruleset,
  {bc1f1e46-31e1-4f77-9445-e7b3a3f7d712}, !- Handle
  unit_1 cooling setpoint,                !- Name
  {9358e260-b388-4533-b7de-b7218bb6dfa6}, !- Schedule Type Limits Name
  {e4c39096-5b2e-4fe3-9f82-63e398902566}; !- Default Day Schedule Name

OS:Schedule:Day,
  {e4c39096-5b2e-4fe3-9f82-63e398902566}, !- Handle
  unit_1 Schedule Day 4,                  !- Name
  {9358e260-b388-4533-b7de-b7218bb6dfa6}, !- Schedule Type Limits Name
  ,                                       !- Interpolate to Timestep
  24,                                     !- Hour 1
  0,                                      !- Minute 1
  0;                                      !- Value Until Time 1

OS:Schedule:Rule,
  {c4712437-6d03-418f-8506-6da2e831c6e8}, !- Handle
  unit_1 cooling setpoint allday ruleset1, !- Name
  {bc1f1e46-31e1-4f77-9445-e7b3a3f7d712}, !- Schedule Ruleset Name
  2,                                      !- Rule Order
  {be39276c-e547-461c-92d5-7e38e17d1935}, !- Day Schedule Name
  Yes,                                    !- Apply Sunday
  Yes,                                    !- Apply Monday
  Yes,                                    !- Apply Tuesday
  Yes,                                    !- Apply Wednesday
  Yes,                                    !- Apply Thursday
  Yes,                                    !- Apply Friday
  Yes,                                    !- Apply Saturday
  DateRange,                              !- Date Specification Type
  1,                                      !- Start Month
  1,                                      !- Start Day
  5,                                      !- End Month
  31;                                     !- End Day

OS:Schedule:Day,
  {be39276c-e547-461c-92d5-7e38e17d1935}, !- Handle
  unit_1 cooling setpoint allday1,        !- Name
  {9358e260-b388-4533-b7de-b7218bb6dfa6}, !- Schedule Type Limits Name
  ,                                       !- Interpolate to Timestep
  24,                                     !- Hour 1
  0,                                      !- Minute 1
  24.4444444444444;                       !- Value Until Time 1

OS:Schedule:Rule,
  {a7bf57d7-c72b-4d5e-bd08-13ccdeed72aa}, !- Handle
  unit_1 cooling setpoint allday ruleset6, !- Name
  {bc1f1e46-31e1-4f77-9445-e7b3a3f7d712}, !- Schedule Ruleset Name
  1,                                      !- Rule Order
  {9f92f675-5ecd-48dc-8fa1-ed3783cfc19a}, !- Day Schedule Name
  Yes,                                    !- Apply Sunday
  Yes,                                    !- Apply Monday
  Yes,                                    !- Apply Tuesday
  Yes,                                    !- Apply Wednesday
  Yes,                                    !- Apply Thursday
  Yes,                                    !- Apply Friday
  Yes,                                    !- Apply Saturday
  DateRange,                              !- Date Specification Type
  6,                                      !- Start Month
  1,                                      !- Start Day
  8,                                      !- End Month
  31;                                     !- End Day

OS:Schedule:Day,
  {9f92f675-5ecd-48dc-8fa1-ed3783cfc19a}, !- Handle
  unit_1 cooling setpoint allday6,        !- Name
  {9358e260-b388-4533-b7de-b7218bb6dfa6}, !- Schedule Type Limits Name
  ,                                       !- Interpolate to Timestep
  24,                                     !- Hour 1
  0,                                      !- Minute 1
  24.7222222222222;                       !- Value Until Time 1

OS:Schedule:Rule,
  {d32fe164-1692-45ec-8e10-4b6432ea1410}, !- Handle
  unit_1 cooling setpoint allday ruleset9, !- Name
  {bc1f1e46-31e1-4f77-9445-e7b3a3f7d712}, !- Schedule Ruleset Name
  0,                                      !- Rule Order
  {26d3507c-1da2-4765-b155-ed952b676279}, !- Day Schedule Name
  Yes,                                    !- Apply Sunday
  Yes,                                    !- Apply Monday
  Yes,                                    !- Apply Tuesday
  Yes,                                    !- Apply Wednesday
  Yes,                                    !- Apply Thursday
  Yes,                                    !- Apply Friday
  Yes,                                    !- Apply Saturday
  DateRange,                              !- Date Specification Type
  9,                                      !- Start Month
  1,                                      !- Start Day
  12,                                     !- End Month
  31;                                     !- End Day

OS:Schedule:Day,
  {26d3507c-1da2-4765-b155-ed952b676279}, !- Handle
  unit_1 cooling setpoint allday9,        !- Name
  {9358e260-b388-4533-b7de-b7218bb6dfa6}, !- Schedule Type Limits Name
  ,                                       !- Interpolate to Timestep
  24,                                     !- Hour 1
  0,                                      !- Minute 1
  24.4444444444444;                       !- Value Until Time 1

OS:ThermostatSetpoint:DualSetpoint,
  {26115319-6dca-4d80-be74-857ec0d1e8ef}, !- Handle
  unit_1 living space temperature setpoint, !- Name
  {ea14b58d-774d-4160-8b7e-a15cda212b2f}, !- Heating Setpoint Temperature Schedule Name
  {bc1f1e46-31e1-4f77-9445-e7b3a3f7d712}; !- Cooling Setpoint Temperature Schedule Name

OS:ScheduleTypeLimits,
  {9358e260-b388-4533-b7de-b7218bb6dfa6}, !- Handle
  unit_1 Temperature,                     !- Name
  ,                                       !- Lower Limit Value
  ,                                       !- Upper Limit Value
  Continuous,                             !- Numeric Type
  Temperature;                            !- Unit Type

OS:Surface,
  {18a1e7bf-ae0c-4f2d-b1b9-01104eac9406}, !- Handle
  unit_1 Surface_8:0,                     !- Name
  RoofCeiling,                            !- Surface Type
  {88299331-1507-45dd-9cdc-62d6f153f201}, !- Construction Name
  {a477e4e5-94f6-499f-bb38-0a66a5856f85}, !- Space Name
  Outdoors,                               !- Outside Boundary Condition
  ,                                       !- Outside Boundary Condition Object
  SunExposed,                             !- Sun Exposure
  WindExposed,                            !- Wind Exposure
  ,                                       !- View Factor to Ground
  ,                                       !- Number of Vertices
  -16.5625709408182, 23.2294618290315, 2.4384, !- X,Y,Z Vertex 1 {m}
  -16.5625715033866, 2.15810191164607, 12.9740799586928, !- X,Y,Z Vertex 2 {m}
  -10.6729473591818, 2.15810175440337, 12.9740799586928, !- X,Y,Z Vertex 3 {m}
  -10.6729467966134, 23.2294616717888, 2.4384; !- X,Y,Z Vertex 4 {m}

OS:AdditionalProperties,
  {49f4deb8-0829-4dfa-adc3-3e987035726d}, !- Handle
  {18a1e7bf-ae0c-4f2d-b1b9-01104eac9406}, !- Object Name
  Length,                                 !- Feature Name 1
  Double,                                 !- Feature Data Type 1
  19.322913858939597,                     !- Feature Value 1
  Width,                                  !- Feature Name 2
  Double,                                 !- Feature Data Type 2
  77.2916554357584,                       !- Feature Value 2
  Azimuth,                                !- Feature Name 3
  Integer,                                !- Feature Data Type 3
  0,                                      !- Feature Value 3
  Tilt,                                   !- Feature Name 4
  Double,                                 !- Feature Data Type 4
  0.5,                                    !- Feature Value 4
  SurfaceType,                            !- Feature Name 5
  String,                                 !- Feature Data Type 5
  Roof;                                   !- Feature Value 5

OS:ThermalZone,
  {9369c13a-77e5-4b7d-b67f-3c99b25c1b6e}, !- Handle
  unit_1 attic - unvented,                !- Name
  ,                                       !- Multiplier
  ,                                       !- Ceiling Height {m}
  824.533508254542,                       !- Volume {m3}
  ,                                       !- Floor Area {m2}
  ,                                       !- Zone Inside Convection Algorithm
  ,                                       !- Zone Outside Convection Algorithm
  ,                                       !- Zone Conditioning Equipment List Name
  {996fe2f8-e625-4e09-8b01-63a29ecdc0a5}, !- Zone Air Inlet Port List
  {8d48bbe9-8cbc-4e04-a309-a30c10e01f41}, !- Zone Air Exhaust Port List
  {93dc400a-7323-489b-881c-6254660bc65a}, !- Zone Air Node Name
  {3d687aa3-f284-4dcd-9cc1-add9bc3efa3c}, !- Zone Return Air Port List