
OS:Version,
  {9808ece1-57b2-41ac-9c82-e621eae3ffd9}, !- Handle
  3.0.1;                                  !- Version Identifier

OS:WeatherFile,
  {5406f41d-c6bb-40b3-b777-b731661d54f1}, !- Handle
  Buffalo Niagara Intl Ap,                !- City
  NY,                                     !- State Province Region
  USA,                                    !- Country
  TMY3,                                   !- Data Source
  725280,                                 !- WMO Number
  42.93,                                  !- Latitude {deg}
  -78.73,                                 !- Longitude {deg}
  -5,                                     !- Time Zone {hr}
  215,                                    !- Elevation {m}
  /Users/dgoldwas/Documents/GitHub/URBANopt/urbanopt-example-geojson-project/weather/USA_NY_Buffalo-Greater.Buffalo.Intl.AP.725280_TMY3.epw, !- Url
  6B50E0FF;                               !- Checksum

OS:YearDescription,
  {cfa8efaf-0224-4cc0-91e1-850294ec9eb6}, !- Handle
  ,                                       !- Calendar Year
  Monday;                                 !- Day of Week for Start Day

OS:Site,
  {a36e749f-e74f-481e-9805-7aec3e96c75a}, !- Handle
  unit_2 Buffalo Niagara Intl Ap_NY_USA,  !- Name
  42.93,                                  !- Latitude {deg}
  -78.73,                                 !- Longitude {deg}
  -5,                                     !- Time Zone {hr}
  215,                                    !- Elevation {m}
  Suburbs;                                !- Terrain

OS:ClimateZones,
  {5b104b39-7400-4393-a896-5469ad0293a2}, !- Handle
  Building America,                       !- Climate Zone Institution Name 1
  ,                                       !- Climate Zone Document Name 1
  0,                                      !- Climate Zone Document Year 1
  Cold;                                   !- Climate Zone Value 1

OS:RunPeriodControl:DaylightSavingTime,
  {839cb957-8d34-40db-b4ec-04075d1a7221}, !- Handle
  Mar 12,                                 !- Start Date
  Nov 5;                                  !- End Date

OS:Site:GroundTemperature:Shallow,
  {31ed2aee-79d8-4c3d-aac4-177ca0dfd545}, !- Handle
  4.30207395723831,                       !- January Surface Ground Temperature {C}
  2.29327249652502,                       !- February Surface Ground Temperature {C}
  2.1324004715605,                        !- March Surface Ground Temperature {C}
  3.08567940719289,                       !- April Surface Ground Temperature {C}
  6.91256312497529,                       !- May Surface Ground Temperature {C}
  10.7216195949507,                       !- June Surface Ground Temperature {C}
  14.0238679822575,                       !- July Surface Ground Temperature {C}
  16.1157611184725,                       !- August Surface Ground Temperature {C}
  16.2934789303462,                       !- September Surface Ground Temperature {C}
  14.5920754632848,                       !- October Surface Ground Temperature {C}
  11.3740363486531,                       !- November Surface Ground Temperature {C}
  7.68182621661677;                       !- December Surface Ground Temperature {C}

OS:SimulationControl,
  {c52743ae-ee8e-4e52-b33b-018622a5b795}, !- Handle
  ,                                       !- Do Zone Sizing Calculation
  ,                                       !- Do System Sizing Calculation
  ,                                       !- Do Plant Sizing Calculation
  No;                                     !- Run Simulation for Sizing Periods

OS:Timestep,
  {1340adc7-8733-4de5-86d7-8f392dd2806a}, !- Handle
  1;                                      !- Number of Timesteps per Hour

OS:ShadowCalculation,
  {4de69f9a-d0df-43a5-b63a-308ca1875eb4}, !- Handle
  PolygonClipping,                        !- Shading Calculation Method
  ,                                       !- Shading Calculation Update Frequency Method
  20,                                     !- Shading Calculation Update Frequency
  200,                                    !- Maximum Figures in Shadow Overlap Calculations
  ,                                       !- Polygon Clipping Algorithm
  512,                                    !- Pixel Counting Resolution
  ,                                       !- Sky Diffuse Modeling Algorithm
  No,                                     !- Output External Shading Calculation Results
  No,                                     !- Disable Self-Shading Within Shading Zone Groups
  No;                                     !- Disable Self-Shading From Shading Zone Groups to Other Zones

OS:SurfaceConvectionAlgorithm:Outside,
  {4391ac9d-6620-41bf-af83-75f4a1ac7292}, !- Handle
  DOE-2;                                  !- Algorithm

OS:SurfaceConvectionAlgorithm:Inside,
  {78089316-a001-426c-ba16-b578f940a87d}, !- Handle
  TARP;                                   !- Algorithm

OS:ZoneCapacitanceMultiplier:ResearchSpecial,
  {3cbef08e-be53-4f62-b956-01af04478e83}, !- Handle
  ,                                       !- Temperature Capacity Multiplier
  15,                                     !- Humidity Capacity Multiplier
  ;                                       !- Carbon Dioxide Capacity Multiplier

OS:ConvergenceLimits,
  {954c6742-03a4-430f-a895-26574a7c9a75}, !- Handle
  0;                                      !- Minimum System Timestep {minutes}

OS:RunPeriod,
  {409ba57b-ac0a-452b-9d28-86b7814e6cc5}, !- Handle
  unit_2 Run Period 1,                    !- Name
  1,                                      !- Begin Month
  1,                                      !- Begin Day of Month
  12,                                     !- End Month
  31,                                     !- End Day of Month
  ,                                       !- Use Weather File Holidays and Special Days
  ,                                       !- Use Weather File Daylight Saving Period
  ,                                       !- Apply Weekend Holiday Rule
  ,                                       !- Use Weather File Rain Indicators
  ,                                       !- Use Weather File Snow Indicators
  ;                                       !- Number of Times Runperiod to be Repeated

OS:ThermalZone,
  {4beacfc6-06fa-4070-bb05-8ee558b9ab22}, !- Handle
  unit_2 living space,                    !- Name
  ,                                       !- Multiplier
  ,                                       !- Ceiling Height {m}
  1210.60182550118,                       !- Volume {m3}
  ,                                       !- Floor Area {m2}
  ,                                       !- Zone Inside Convection Algorithm
  ,                                       !- Zone Outside Convection Algorithm
  ,                                       !- Zone Conditioning Equipment List Name
  {1498b7df-9570-433b-814a-03acb5f7c821}, !- Zone Air Inlet Port List
  {f0c70ca4-c5cc-42a3-8b30-282d38fe8e6b}, !- Zone Air Exhaust Port List
  {ac68861d-f96a-4b92-afa7-40c419b14d30}, !- Zone Air Node Name
  {e902913d-80e6-46fd-b211-7d5b5a59cdf9}, !- Zone Return Air Port List
  ,                                       !- Primary Daylighting Control Name
  ,                                       !- Fraction of Zone Controlled by Primary Daylighting Control
  ,                                       !- Secondary Daylighting Control Name
  ,                                       !- Fraction of Zone Controlled by Secondary Daylighting Control
  ,                                       !- Illuminance Map Name
  ,                                       !- Group Rendering Name
  {0dc227d6-bf12-4e0a-b64f-62ca0055899c}, !- Thermostat Name
  No;                                     !- Use Ideal Air Loads

OS:Node,
  {317d47b2-7ab9-4f04-9935-6110a29773f9}, !- Handle
  unit_2 Node 1,                          !- Name
  {ac68861d-f96a-4b92-afa7-40c419b14d30}, !- Inlet Port
  ;                                       !- Outlet Port

OS:Connection,
  {ac68861d-f96a-4b92-afa7-40c419b14d30}, !- Handle
  unit_2 {f4691526-ffa4-46a9-ba69-0dd1ab848a94}, !- Name
  {4beacfc6-06fa-4070-bb05-8ee558b9ab22}, !- Source Object
  11,                                     !- Outlet Port
  {317d47b2-7ab9-4f04-9935-6110a29773f9}, !- Target Object
  2;                                      !- Inlet Port

OS:PortList,
  {1498b7df-9570-433b-814a-03acb5f7c821}, !- Handle
  unit_2 {3b90d6d7-f005-42f5-b91d-41d221dc64f3}, !- Name
  {4beacfc6-06fa-4070-bb05-8ee558b9ab22}, !- HVAC Component
  {c87d2526-ed9b-40a9-823d-957d3644f3ed}, !- Port 1
  {e789c2f2-4592-4ca7-93c6-88c286a4e73c}, !- Port 2
  {c9c712c9-f432-48b5-a461-cf796162413e}; !- Port 3

OS:PortList,
  {f0c70ca4-c5cc-42a3-8b30-282d38fe8e6b}, !- Handle
  unit_2 {a8b4b50e-9729-41bc-a296-9bcb4dcaa9a2}, !- Name
  {4beacfc6-06fa-4070-bb05-8ee558b9ab22}, !- HVAC Component
  {37bb254b-84d6-47a1-a86c-dc5fb5bc8fe6}; !- Port 1

OS:PortList,
  {e902913d-80e6-46fd-b211-7d5b5a59cdf9}, !- Handle
  unit_2 {6f4f72a9-f5b5-4e93-9343-9daed7037767}, !- Name
  {4beacfc6-06fa-4070-bb05-8ee558b9ab22}, !- HVAC Component
  {a74d2cfd-7063-4e48-bcb5-076d9fd1b8ad}, !- Port 1
  {a7836977-0729-44fb-bf8b-e74ed138e830}; !- Port 2

OS:Sizing:Zone,
  {c5d6d8e6-49a1-4ddf-8c4b-42e0429d6844}, !- Handle
  {4beacfc6-06fa-4070-bb05-8ee558b9ab22}, !- Zone or ZoneList Name
  SupplyAirTemperature,                   !- Zone Cooling Design Supply Air Temperature Input Method
  14,                                     !- Zone Cooling Design Supply Air Temperature {C}
  11.11,                                  !- Zone Cooling Design Supply Air Temperature Difference {deltaC}
  SupplyAirTemperature,                   !- Zone Heating Design Supply Air Temperature Input Method
  40,                                     !- Zone Heating Design Supply Air Temperature {C}
  11.11,                                  !- Zone Heating Design Supply Air Temperature Difference {deltaC}
  0.0085,                                 !- Zone Cooling Design Supply Air Humidity Ratio {kg-H2O/kg-air}
  0.008,                                  !- Zone Heating Design Supply Air Humidity Ratio {kg-H2O/kg-air}
  ,                                       !- Zone Heating Sizing Factor
  ,                                       !- Zone Cooling Sizing Factor
  DesignDay,                              !- Cooling Design Air Flow Method
  ,                                       !- Cooling Design Air Flow Rate {m3/s}
  ,                                       !- Cooling Minimum Air Flow per Zone Floor Area {m3/s-m2}
  ,                                       !- Cooling Minimum Air Flow {m3/s}
  ,                                       !- Cooling Minimum Air Flow Fraction
  DesignDay,                              !- Heating Design Air Flow Method
  ,                                       !- Heating Design Air Flow Rate {m3/s}
  ,                                       !- Heating Maximum Air Flow per Zone Floor Area {m3/s-m2}
  ,                                       !- Heating Maximum Air Flow {m3/s}
  ,                                       !- Heating Maximum Air Flow Fraction
  No,                                     !- Account for Dedicated Outdoor Air System
  NeutralSupplyAir,                       !- Dedicated Outdoor Air System Control Strategy
  autosize,                               !- Dedicated Outdoor Air Low Setpoint Temperature for Design {C}
  autosize;                               !- Dedicated Outdoor Air High Setpoint Temperature for Design {C}

OS:ZoneHVAC:EquipmentList,
  {96052e91-ef55-41cb-9e70-1ef63349abcc}, !- Handle
  unit_2 Zone HVAC Equipment List 1,      !- Name
  {4beacfc6-06fa-4070-bb05-8ee558b9ab22}, !- Thermal Zone
  ,                                       !- Load Distribution Scheme
  {dccbd84b-b105-47c1-8f39-3937da838a13}, !- Zone Equipment 1
  1,                                      !- Zone Equipment Cooling Sequence 1
  1,                                      !- Zone Equipment Heating or No-Load Sequence 1
  {05f600fd-896c-4406-aa04-fc5d09ce283c}, !- Zone Equipment Sequential Cooling Fraction Schedule Name 1
  {e81692e7-dd38-4a38-886b-0bcd362e106f}, !- Zone Equipment Sequential Heating Fraction Schedule Name 1
  {a8ff3ccd-a748-47cb-90db-d6fb294d3211}, !- Zone Equipment 2
  2,                                      !- Zone Equipment Cooling Sequence 2
  2,                                      !- Zone Equipment Heating or No-Load Sequence 2
  {995b3dd4-824d-41f5-bc73-14f9fd57fe22}, !- Zone Equipment Sequential Cooling Fraction Schedule Name 2
  {964cecd3-b394-4459-8166-1525b790e420}, !- Zone Equipment Sequential Heating Fraction Schedule Name 2
  {1a7a2e60-c092-49a9-9dd8-0d46a7caac17}, !- Zone Equipment 3
  3,                                      !- Zone Equipment Cooling Sequence 3
  3,                                      !- Zone Equipment Heating or No-Load Sequence 3
  {f882a126-6803-4372-83b5-0abd0f26ec33}, !- Zone Equipment Sequential Cooling Fraction Schedule Name 3
  {f53ab688-6f44-4066-857a-1a93cf1931fd}; !- Zone Equipment Sequential Heating Fraction Schedule Name 3

OS:Space,
  {4ba3eb73-89a9-4887-90d6-b0407f469bf2}, !- Handle
  unit_2 living space,                    !- Name
  {3ca325dc-72ba-4770-a66a-35f3d140b09d}, !- Space Type Name
  ,                                       !- Default Construction Set Name
  ,                                       !- Default Schedule Set Name
  ,                                       !- Direction of Relative North {deg}
  ,                                       !- X Origin {m}
  60,                                     !- Y Origin {m}
  ,                                       !- Z Origin {m}
  ,                                       !- Building Story Name
  {4beacfc6-06fa-4070-bb05-8ee558b9ab22}, !- Thermal Zone Name
  ,                                       !- Part of Total Floor Area
  ,                                       !- Design Specification Outdoor Air Object Name
  {2416c0ed-2414-4b75-b2dd-85b6af8811d9}; !- Building Unit Name

OS:SpaceType,
  {3ca325dc-72ba-4770-a66a-35f3d140b09d}, !- Handle
  unit_2 Space Type 1,                    !- Name
  ,                                       !- Default Construction Set Name
  ,                                       !- Default Schedule Set Name
  ,                                       !- Group Rendering Name
  ,                                       !- Design Specification Outdoor Air Object Name
  ,                                       !- Standards Template
  ,                                       !- Standards Building Type
  living space;                           !- Standards Space Type

OS:Schedule:Ruleset,
  {a523088d-fbd3-4b77-87d2-99c0206ced0d}, !- Handle
  unit_2 heating season,                  !- Name
  {513bc55d-d321-4d9f-8396-494695bd6c5d}, !- Schedule Type Limits Name
  {d37d5c92-ac00-4588-84c2-f70ede03bddb}; !- Default Day Schedule Name

OS:Schedule:Day,
  {d37d5c92-ac00-4588-84c2-f70ede03bddb}, !- Handle
  unit_2 Schedule Day 1,                  !- Name
  {513bc55d-d321-4d9f-8396-494695bd6c5d}, !- Schedule Type Limits Name
  ,                                       !- Interpolate to Timestep
  24,                                     !- Hour 1
  0,                                      !- Minute 1
  0;                                      !- Value Until Time 1

OS:Schedule:Rule,
  {01bbf7db-1bb2-407f-b94e-7343dd35ec28}, !- Handle
  unit_2 heating season allday ruleset1,  !- Name
  {a523088d-fbd3-4b77-87d2-99c0206ced0d}, !- Schedule Ruleset Name
  0,                                      !- Rule Order
  {21bad678-af66-4ce7-b8b2-a1683ec56e13}, !- Day Schedule Name
  Yes,                                    !- Apply Sunday
  Yes,                                    !- Apply Monday
  Yes,                                    !- Apply Tuesday
  Yes,                                    !- Apply Wednesday
  Yes,                                    !- Apply Thursday
  Yes,                                    !- Apply Friday
  Yes,                                    !- Apply Saturday
  DateRange,                              !- Date Specification Type
  1,                                      !- Start Month
  1,                                      !- Start Day
  12,                                     !- End Month
  31;                                     !- End Day

OS:Schedule:Day,
  {21bad678-af66-4ce7-b8b2-a1683ec56e13}, !- Handle
  unit_2 heating season allday1,          !- Name
  {513bc55d-d321-4d9f-8396-494695bd6c5d}, !- Schedule Type Limits Name
  ,                                       !- Interpolate to Timestep
  24,                                     !- Hour 1
  0,                                      !- Minute 1
  1;                                      !- Value Until Time 1

OS:ScheduleTypeLimits,
  {513bc55d-d321-4d9f-8396-494695bd6c5d}, !- Handle
  unit_2 OnOff,                           !- Name
  0,                                      !- Lower Limit Value
  1,                                      !- Upper Limit Value
  Discrete;                               !- Numeric Type

OS:Schedule:Ruleset,
  {c6cfb5bb-e7b2-432c-b019-0056b7bdab34}, !- Handle
  unit_2 cooling season,                  !- Name
  {513bc55d-d321-4d9f-8396-494695bd6c5d}, !- Schedule Type Limits Name
  {8582a6b1-c109-45ff-a230-9fda3d0df926}; !- Default Day Schedule Name

OS:Schedule:Day,
  {8582a6b1-c109-45ff-a230-9fda3d0df926}, !- Handle
  unit_2 Schedule Day 2,                  !- Name
  {513bc55d-d321-4d9f-8396-494695bd6c5d}, !- Schedule Type Limits Name
  ,                                       !- Interpolate to Timestep
  24,                                     !- Hour 1
  0,                                      !- Minute 1
  0;                                      !- Value Until Time 1

OS:Schedule:Rule,
  {1bbbe552-d988-4217-b056-305756aa7ed9}, !- Handle
  unit_2 cooling season allday ruleset1,  !- Name
  {c6cfb5bb-e7b2-432c-b019-0056b7bdab34}, !- Schedule Ruleset Name
  0,                                      !- Rule Order
  {8ba45ec2-2f2d-4c8d-a595-c3d784c0ad9c}, !- Day Schedule Name
  Yes,                                    !- Apply Sunday
  Yes,                                    !- Apply Monday
  Yes,                                    !- Apply Tuesday
  Yes,                                    !- Apply Wednesday
  Yes,                                    !- Apply Thursday
  Yes,                                    !- Apply Friday
  Yes,                                    !- Apply Saturday
  DateRange,                              !- Date Specification Type
  1,                                      !- Start Month
  1,                                      !- Start Day
  12,                                     !- End Month
  31;                                     !- End Day

OS:Schedule:Day,
  {8ba45ec2-2f2d-4c8d-a595-c3d784c0ad9c}, !- Handle
  unit_2 cooling season allday1,          !- Name
  {513bc55d-d321-4d9f-8396-494695bd6c5d}, !- Schedule Type Limits Name
  ,                                       !- Interpolate to Timestep
  24,                                     !- Hour 1
  0,                                      !- Minute 1
  1;                                      !- Value Until Time 1

OS:Schedule:Ruleset,
  {ce6dc5a8-82e1-44d2-ad49-63c78e855ae5}, !- Handle
  unit_2 heating setpoint,                !- Name
  {0544f306-4f63-411e-b9b1-3eec8cd3e630}, !- Schedule Type Limits Name
  {d4155e90-5e5a-4c8a-a653-c441b7731c9c}; !- Default Day Schedule Name

OS:Schedule:Day,
  {d4155e90-5e5a-4c8a-a653-c441b7731c9c}, !- Handle
  unit_2 Schedule Day 3,                  !- Name
  {0544f306-4f63-411e-b9b1-3eec8cd3e630}, !- Schedule Type Limits Name
  ,                                       !- Interpolate to Timestep
  24,                                     !- Hour 1
  0,                                      !- Minute 1
  0;                                      !- Value Until Time 1

OS:Schedule:Rule,
  {457addcc-4d3d-472f-8951-49e800c34086}, !- Handle
  unit_2 heating setpoint allday ruleset1, !- Name
  {ce6dc5a8-82e1-44d2-ad49-63c78e855ae5}, !- Schedule Ruleset Name
  0,                                      !- Rule Order
  {a605a0a5-0e7d-4d22-a77e-87331e07120a}, !- Day Schedule Name
  Yes,                                    !- Apply Sunday
  Yes,                                    !- Apply Monday
  Yes,                                    !- Apply Tuesday
  Yes,                                    !- Apply Wednesday
  Yes,                                    !- Apply Thursday
  Yes,                                    !- Apply Friday
  Yes,                                    !- Apply Saturday
  DateRange,                              !- Date Specification Type
  1,                                      !- Start Month
  1,                                      !- Start Day
  12,                                     !- End Month
  31;                                     !- End Day

OS:Schedule:Day,
  {a605a0a5-0e7d-4d22-a77e-87331e07120a}, !- Handle
  unit_2 heating setpoint allday1,        !- Name
  {0544f306-4f63-411e-b9b1-3eec8cd3e630}, !- Schedule Type Limits Name
  ,                                       !- Interpolate to Timestep
  24,                                     !- Hour 1
  0,                                      !- Minute 1
  21.6666666666667;                       !- Value Until Time 1

OS:Schedule:Ruleset,
  {27fb8eea-d60d-45a3-ad7b-01cf3fd08988}, !- Handle
  unit_2 cooling setpoint,                !- Name
  {0544f306-4f63-411e-b9b1-3eec8cd3e630}, !- Schedule Type Limits Name
  {01ef931a-6a31-46f8-9cb4-71cdac6158f3}; !- Default Day Schedule Name

OS:Schedule:Day,
  {01ef931a-6a31-46f8-9cb4-71cdac6158f3}, !- Handle
  unit_2 Schedule Day 4,                  !- Name
  {0544f306-4f63-411e-b9b1-3eec8cd3e630}, !- Schedule Type Limits Name
  ,                                       !- Interpolate to Timestep
  24,                                     !- Hour 1
  0,                                      !- Minute 1
  0;                                      !- Value Until Time 1

OS:Schedule:Rule,
  {597164a8-a63c-43be-ac2b-84c137ddc888}, !- Handle
  unit_2 cooling setpoint allday ruleset1, !- Name
  {27fb8eea-d60d-45a3-ad7b-01cf3fd08988}, !- Schedule Ruleset Name
  2,                                      !- Rule Order
  {89e4aa67-33bd-4ad1-9745-20aa1833bd54}, !- Day Schedule Name
  Yes,                                    !- Apply Sunday
  Yes,                                    !- Apply Monday
  Yes,                                    !- Apply Tuesday
  Yes,                                    !- Apply Wednesday
  Yes,                                    !- Apply Thursday
  Yes,                                    !- Apply Friday
  Yes,                                    !- Apply Saturday
  DateRange,                              !- Date Specification Type
  1,                                      !- Start Month
  1,                                      !- Start Day
  5,                                      !- End Month
  31;                                     !- End Day

OS:Schedule:Day,
  {89e4aa67-33bd-4ad1-9745-20aa1833bd54}, !- Handle
  unit_2 cooling setpoint allday1,        !- Name
  {0544f306-4f63-411e-b9b1-3eec8cd3e630}, !- Schedule Type Limits Name
  ,                                       !- Interpolate to Timestep
  24,                                     !- Hour 1
  0,                                      !- Minute 1
  24.4444444444444;                       !- Value Until Time 1

OS:Schedule:Rule,
  {cfb0da8a-cc44-4207-890e-02a340a15507}, !- Handle
  unit_2 cooling setpoint allday ruleset6, !- Name
  {27fb8eea-d60d-45a3-ad7b-01cf3fd08988}, !- Schedule Ruleset Name
  1,                                      !- Rule Order
  {3bbcb967-1465-4444-ad8e-2bbdc6c95618}, !- Day Schedule Name
  Yes,                                    !- Apply Sunday
  Yes,                                    !- Apply Monday
  Yes,                                    !- Apply Tuesday
  Yes,                                    !- Apply Wednesday
  Yes,                                    !- Apply Thursday
  Yes,                                    !- Apply Friday
  Yes,                                    !- Apply Saturday
  DateRange,                              !- Date Specification Type
  6,                                      !- Start Month
  1,                                      !- Start Day
  8,                                      !- End Month
  31;                                     !- End Day

OS:Schedule:Day,
  {3bbcb967-1465-4444-ad8e-2bbdc6c95618}, !- Handle
  unit_2 cooling setpoint allday6,        !- Name
  {0544f306-4f63-411e-b9b1-3eec8cd3e630}, !- Schedule Type Limits Name
  ,                                       !- Interpolate to Timestep
  24,                                     !- Hour 1
  0,                                      !- Minute 1
  24.7222222222222;                       !- Value Until Time 1

OS:Schedule:Rule,
  {1a349dc4-7ca0-4d6f-9f8a-934ddc4049a1}, !- Handle
  unit_2 cooling setpoint allday ruleset9, !- Name
  {27fb8eea-d60d-45a3-ad7b-01cf3fd08988}, !- Schedule Ruleset Name
  0,                                      !- Rule Order
  {f8794e94-0272-44fd-93c2-09d5b1a17b54}, !- Day Schedule Name
  Yes,                                    !- Apply Sunday
  Yes,                                    !- Apply Monday
  Yes,                                    !- Apply Tuesday
  Yes,                                    !- Apply Wednesday
  Yes,                                    !- Apply Thursday
  Yes,                                    !- Apply Friday
  Yes,                                    !- Apply Saturday
  DateRange,                              !- Date Specification Type
  9,                                      !- Start Month
  1,                                      !- Start Day
  12,                                     !- End Month
  31;                                     !- End Day

OS:Schedule:Day,
  {f8794e94-0272-44fd-93c2-09d5b1a17b54}, !- Handle
  unit_2 cooling setpoint allday9,        !- Name
  {0544f306-4f63-411e-b9b1-3eec8cd3e630}, !- Schedule Type Limits Name
  ,                                       !- Interpolate to Timestep
  24,                                     !- Hour 1
  0,                                      !- Minute 1
  24.4444444444444;                       !- Value Until Time 1

OS:ThermostatSetpoint:DualSetpoint,
  {0dc227d6-bf12-4e0a-b64f-62ca0055899c}, !- Handle
  unit_2 living space temperature setpoint, !- Name
  {ce6dc5a8-82e1-44d2-ad49-63c78e855ae5}, !- Heating Setpoint Temperature Schedule Name
  {27fb8eea-d60d-45a3-ad7b-01cf3fd08988}; !- Cooling Setpoint Temperature Schedule Name

OS:ScheduleTypeLimits,
  {0544f306-4f63-411e-b9b1-3eec8cd3e630}, !- Handle
  unit_2 Temperature,                     !- Name
  ,                                       !- Lower Limit Value
  ,                                       !- Upper Limit Value
  Continuous,                             !- Numeric Type
  Temperature;                            !- Unit Type

OS:Surface,
  {8e7d2766-140c-40ab-b0f5-a49439dce1a0}, !- Handle
  unit_2 Surface_8:0,                     !- Name
  RoofCeiling,                            !- Surface Type
  {833338a6-9f3b-48b2-b8c0-867aab47573f}, !- Construction Name
  {a0746286-ed5e-46fc-a0bd-ad148d5baf6e}, !- Space Name
  Outdoors,                               !- Outside Boundary Condition
  ,                                       !- Outside Boundary Condition Object
  SunExposed,                             !- Sun Exposure
  WindExposed,                            !- Wind Exposure
  ,                                       !- View Factor to Ground
  ,                                       !- Number of Vertices
  -16.5625709408182, 23.2294618290315, 2.4384, !- X,Y,Z Vertex 1 {m}
  -16.5625715033866, 2.15810191164607, 12.9740799586928, !- X,Y,Z Vertex 2 {m}
  -10.6729473591818, 2.15810175440337, 12.9740799586928, !- X,Y,Z Vertex 3 {m}
  -10.6729467966134, 23.2294616717888, 2.4384; !- X,Y,Z Vertex 4 {m}

OS:AdditionalProperties,
  {87e5caf9-21b2-4249-a36f-a31bb4c33017}, !- Handle
  {8e7d2766-140c-40ab-b0f5-a49439dce1a0}, !- Object Name
  Length,                                 !- Feature Name 1
  Double,                                 !- Feature Data Type 1
  19.322913858939597,                     !- Feature Value 1
  Width,                                  !- Feature Name 2
  Double,                                 !- Feature Data Type 2
  77.2916554357584,                       !- Feature Value 2
  Azimuth,                                !- Feature Name 3
  Integer,                                !- Feature Data Type 3
  0,                                      !- Feature Value 3
  Tilt,                                   !- Feature Name 4
  Double,                                 !- Feature Data Type 4
  0.5,                                    !- Feature Value 4
  SurfaceType,                            !- Feature Name 5
  String,                                 !- Feature Data Type 5
  Roof;                                   !- Feature Value 5

OS:ThermalZone,
  {aa186bab-5f15-4e84-8f52-44165c1415fb}, !- Handle
  unit_2 attic - unvented,                !- Name
  ,                                       !- Multiplier
  ,                                       !- Ceiling Height {m}
  824.533508254542,                       !- Volume {m3}
  ,                                       !- Floor Area {m2}
  ,                                       !- Zone Inside Convection Algorithm
  ,                                       !- Zone Outside Convection Algorithm
  ,                                       !- Zone Conditioning Equipment List Name
  {e9842e98-36f6-4c97-bb24-1f40f65a043c}, !- Zone Air Inlet Port List
  {edb5fba9-fdb1-4417-8d1d-7c91a4d6d3e7}, !- Zone Air Exhaust Port List
  {326aa6ba-b7da-424c-85cc-bc4847d98ce2}, !- Zone Air Node Name
  {e3d405c4-c311-4768-b259-80b1e7ba54a7}, !- Zone Return Air Port List