
OS:Version,
  {a000d17b-e08e-4ab3-9ff8-ee8aa669e237}, !- Handle
  1.13.0;                                 !- Version Identifier

OS:Site,
  {6405b56c-fd86-4063-a17a-a40c39725319}, !- Handle
  Boise Air Terminal  Uo,                 !- Name
  43.62,                                  !- Latitude {deg}
  -116.21,                                !- Longitude {deg}
  -7,                                     !- Time Zone {hr}
  701,                                    !- Elevation {m}
  City;                                   !- Terrain

OS:SimulationControl,
  {d867752a-a431-46fe-828b-cddf57fd3c7c}, !- Handle
  Yes,                                    !- Do Zone Sizing Calculation
  Yes,                                    !- Do System Sizing Calculation
  Yes,                                    !- Do Plant Sizing Calculation
  No,                                     !- Run Simulation for Sizing Periods
  Yes,                                    !- Run Simulation for Weather File Run Periods
  0.04,                                   !- Loads Convergence Tolerance Value
  0.2,                                    !- Temperature Convergence Tolerance Value {deltaC}
  FullInteriorAndExterior,                !- Solar Distribution
  25,                                     !- Maximum Number of Warmup Days
  6;                                      !- Minimum Number of Warmup Days

OS:Space,
  {6fa1e149-888d-4fde-908c-e9e645af23f5}, !- Handle
  Perimeter_bot_ZN_2,                     !- Name
  {69b97d92-3050-4d94-b88f-08dface45449}, !- Space Type Name
  ,                                       !- Default Construction Set Name
  ,                                       !- Default Schedule Set Name
  0,                                      !- Direction of Relative North {deg}
  0,                                      !- X Origin {m}
  0,                                      !- Y Origin {m}
  0,                                      !- Z Origin {m}
  {1d72aa12-509a-4df3-8f00-c5afbc12b396}, !- Building Story Name
  {3e3a9280-f39e-41c0-b5af-8cb96e26d4f0}, !- Thermal Zone Name
  Yes,                                    !- Part of Total Floor Area
  ;                                       !- Design Specification Outdoor Air Object Name

OS:Space,
  {d0fb20fd-c793-44e4-ba02-45fd89fed37f}, !- Handle
  Perimeter_mid_ZN_3,                     !- Name
  {69b97d92-3050-4d94-b88f-08dface45449}, !- Space Type Name
  ,                                       !- Default Construction Set Name
  ,                                       !- Default Schedule Set Name
  0,                                      !- Direction of Relative North {deg}
  0,                                      !- X Origin {m}
  0,                                      !- Y Origin {m}
  0,                                      !- Z Origin {m}
  {5039c485-ec75-4a9e-b9fd-7a0e2aa672ab}, !- Building Story Name
  {174c09b4-c305-44ae-b074-c9fb51e714b5}, !- Thermal Zone Name
  Yes,                                    !- Part of Total Floor Area
  ;                                       !- Design Specification Outdoor Air Object Name

OS:Surface,
  {f46be972-9575-45ba-9128-07e67c36396e}, !- Handle
  Perimeter_top_ZN_2_Ceiling,             !- Name
  RoofCeiling,                            !- Surface Type
  ,                                       !- Construction Name
  {7a5a1a26-85d9-40dc-881b-c4c0fab43239}, !- Space Name
  Surface,                                !- Outside Boundary Condition
  {d5bcc52a-1aca-4bf9-9f1c-2516b62f11ea}, !- Outside Boundary Condition Object
  NoSun,                                  !- Sun Exposure
  NoWind,                                 !- Wind Exposure
  ,                                       !- View Factor to Ground
  ,                                       !- Number of Vertices
  73.1072, 0, 46.3392,                    !- X,Y,Z Vertex 1 {m}
  73.1072, 48.7381, 46.3392,              !- X,Y,Z Vertex 2 {m}
  68.534, 44.165, 46.3392,                !- X,Y,Z Vertex 3 {m}
  68.534, 4.5732, 46.3392;                !- X,Y,Z Vertex 4 {m}

OS:Space,
  {7a5a1a26-85d9-40dc-881b-c4c0fab43239}, !- Handle
  Perimeter_top_ZN_2,                     !- Name
  {69b97d92-3050-4d94-b88f-08dface45449}, !- Space Type Name
  ,                                       !- Default Construction Set Name
  ,                                       !- Default Schedule Set Name
  0,                                      !- Direction of Relative North {deg}
  0,                                      !- X Origin {m}
  0,                                      !- Y Origin {m}
  0,                                      !- Z Origin {m}
  {00fc2a18-5ab8-4fb6-8ee5-71d2e9fa5123}, !- Building Story Name
  {8e619daa-9915-400f-8ac8-8c917be05d84}, !- Thermal Zone Name
  Yes,                                    !- Part of Total Floor Area
  ;                                       !- Design Specification Outdoor Air Object Name

OS:Output:Meter,
  {d91d83a2-8e4e-4471-9e4b-706c86f1eb87}, !- Handle
  Electricity:Facility,                   !- Name
  Monthly,                                !- Reporting Frequency
  False,                                  !- Meter File Only
  False;                                  !- Cumulative

OS:Space,
  {7c76989e-d00b-412b-912f-85d3b74b7752}, !- Handle
  Core_mid,                               !- Name
  {69b97d92-3050-4d94-b88f-08dface45449}, !- Space Type Name
  ,                                       !- Default Construction Set Name
  ,                                       !- Default Schedule Set Name
  0,                                      !- Direction of Relative North {deg}
  0,                                      !- X Origin {m}
  0,                                      !- Y Origin {m}
  0,                                      !- Z Origin {m}
  {5039c485-ec75-4a9e-b9fd-7a0e2aa672ab}, !- Building Story Name
  {b99eb9ed-2188-406c-84bc-29a7b67fa5d9}, !- Thermal Zone Name
  Yes,                                    !- Part of Total Floor Area
  ;                                       !- Design Specification Outdoor Air Object Name

OS:Space,
  {3ed0f34b-8c18-47e6-862e-ed413d8ff6d3}, !- Handle
  Perimeter_bot_ZN_1,                     !- Name
  {69b97d92-3050-4d94-b88f-08dface45449}, !- Space Type Name
  ,                                       !- Default Construction Set Name
  ,                                       !- Default Schedule Set Name
  0,                                      !- Direction of Relative North {deg}
  0,                                      !- X Origin {m}
  0,                                      !- Y Origin {m}
  0,                                      !- Z Origin {m}
  {1d72aa12-509a-4df3-8f00-c5afbc12b396}, !- Building Story Name
  {e0e5689b-5667-4282-9aa1-e296f8b29c9c}, !- Thermal Zone Name
  Yes,                                    !- Part of Total Floor Area
  ;                                       !- Design Specification Outdoor Air Object Name

OS:Surface,
  {b7ee21f5-d638-41c6-aa12-53d8ea8cc0fb}, !- Handle
  Perimeter_bot_ZN_3_Floor,               !- Name
  Floor,                                  !- Surface Type
  ,                                       !- Construction Name
  {13a2f62f-9078-4e50-bc98-ee72244c3161}, !- Space Name
  Surface,                                !- Outside Boundary Condition
  {583b09ec-b0b6-4472-b6a9-8607fc7eaf25}, !- Outside Boundary Condition Object
  NoSun,                                  !- Sun Exposure
  NoWind,                                 !- Wind Exposure
  ,                                       !- View Factor to Ground
  ,                                       !- Number of Vertices
  73.1072, 48.7381, 0,                    !- X,Y,Z Vertex 1 {m}
  68.534, 44.165, 0,                      !- X,Y,Z Vertex 2 {m}
  4.5732, 44.165, 0,                      !- X,Y,Z Vertex 3 {m}
  0, 48.7381, 0;                          !- X,Y,Z Vertex 4 {m}

OS:Space,
  {13a2f62f-9078-4e50-bc98-ee72244c3161}, !- Handle
  Perimeter_bot_ZN_3,                     !- Name
  {69b97d92-3050-4d94-b88f-08dface45449}, !- Space Type Name
  ,                                       !- Default Construction Set Name
  ,                                       !- Default Schedule Set Name
  0,                                      !- Direction of Relative North {deg}
  0,                                      !- X Origin {m}
  0,                                      !- Y Origin {m}
  0,                                      !- Z Origin {m}
  {1d72aa12-509a-4df3-8f00-c5afbc12b396}, !- Building Story Name
  {810e3ab9-5dc9-4325-bea6-4683e0c6ef7a}, !- Thermal Zone Name
  Yes,                                    !- Part of Total Floor Area
  ;                                       !- Design Specification Outdoor Air Object Name

OS:Surface,
  {fcf3cedb-8dfb-4667-b974-b4133becbf5c}, !- Handle
  Perimeter_bot_ZN_2_Wall_North,          !- Name
  Wall,                                   !- Surface Type
  ,                                       !- Construction Name
  {6fa1e149-888d-4fde-908c-e9e645af23f5}, !- Space Name
  Surface,                                !- Outside Boundary Condition
  {f8982099-fd60-4ff8-a5ad-0ee401aa9c14}, !- Outside Boundary Condition Object
  NoSun,                                  !- Sun Exposure
  NoWind,                                 !- Wind Exposure
  ,                                       !- View Factor to Ground
  ,                                       !- Number of Vertices
  73.1072, 48.7381, 2.744,                !- X,Y,Z Vertex 1 {m}
  73.1072, 48.7381, 0,                    !- X,Y,Z Vertex 2 {m}
  68.534, 44.165, 0,                      !- X,Y,Z Vertex 3 {m}
  68.534, 44.165, 2.744;                  !- X,Y,Z Vertex 4 {m}

OS:Space,
  {4373e72d-0b88-4934-b120-3695c11d6920}, !- Handle
  Core_bottom,                            !- Name
  {69b97d92-3050-4d94-b88f-08dface45449}, !- Space Type Name
  ,                                       !- Default Construction Set Name
  ,                                       !- Default Schedule Set Name
  0,                                      !- Direction of Relative North {deg}
  0,                                      !- X Origin {m}
  0,                                      !- Y Origin {m}
  0,                                      !- Z Origin {m}
  {1d72aa12-509a-4df3-8f00-c5afbc12b396}, !- Building Story Name
  {0e9bcc07-ca5c-42e9-9b81-3999c566a909}, !- Thermal Zone Name
  Yes,                                    !- Part of Total Floor Area
  ;                                       !- Design Specification Outdoor Air Object Name

OS:Space,
  {850d4284-da0b-4644-a762-d7e2704c9b5b}, !- Handle
  Perimeter_top_ZN_4,                     !- Name
  {69b97d92-3050-4d94-b88f-08dface45449}, !- Space Type Name
  ,                                       !- Default Construction Set Name
  ,                                       !- Default Schedule Set Name
  0,                                      !- Direction of Relative North {deg}
  0,                                      !- X Origin {m}
  0,                                      !- Y Origin {m}
  0,                                      !- Z Origin {m}
  {00fc2a18-5ab8-4fb6-8ee5-71d2e9fa5123}, !- Building Story Name
  {2580547f-572b-47cd-b5ef-a30668072612}, !- Thermal Zone Name
  Yes,                                    !- Part of Total Floor Area
  ;                                       !- Design Specification Outdoor Air Object Name

OS:Surface,
  {f48f578b-de9c-4c28-a2b6-50b70ffaafd8}, !- Handle
  Perimeter_bot_ZN_4_Wall_West,           !- Name
  Wall,                                   !- Surface Type
  ,                                       !- Construction Name
  {6fb98ad7-db40-4865-93f0-273e14f47409}, !- Space Name
  Outdoors,                               !- Outside Boundary Condition
  ,                                       !- Outside Boundary Condition Object
  SunExposed,                             !- Sun Exposure
  WindExposed,                            !- Wind Exposure
  ,                                       !- View Factor to Ground
  ,                                       !- Number of Vertices
  0, 48.7381, 2.744,                      !- X,Y,Z Vertex 1 {m}
  0, 48.7381, 0,                          !- X,Y,Z Vertex 2 {m}
  0, 0, 0,                                !- X,Y,Z Vertex 3 {m}
  0, 0, 2.744;                            !- X,Y,Z Vertex 4 {m}

OS:Space,
  {6fb98ad7-db40-4865-93f0-273e14f47409}, !- Handle
  Perimeter_bot_ZN_4,                     !- Name
  {69b97d92-3050-4d94-b88f-08dface45449}, !- Space Type Name
  ,                                       !- Default Construction Set Name
  ,                                       !- Default Schedule Set Name
  0,                                      !- Direction of Relative North {deg}
  0,                                      !- X Origin {m}
  0,                                      !- Y Origin {m}
  0,                                      !- Z Origin {m}
  {1d72aa12-509a-4df3-8f00-c5afbc12b396}, !- Building Story Name
  {9c33ea7e-031f-425d-babd-3475a15e8194}, !- Thermal Zone Name
  Yes,                                    !- Part of Total Floor Area
  ;                                       !- Design Specification Outdoor Air Object Name

OS:Space,
  {50e23ca8-44ca-4b21-9e87-28b5a400ab4c}, !- Handle
  GroundFloor_Plenum,                     !- Name
  ,                                       !- Space Type Name
  ,                                       !- Default Construction Set Name
  ,                                       !- Default Schedule Set Name
  0,                                      !- Direction of Relative North {deg}
  0,                                      !- X Origin {m}
  0,                                      !- Y Origin {m}
  0,                                      !- Z Origin {m}
  {f66cd8f8-3b56-4242-b1f2-6d3a8b3289a1}, !- Building Story Name
  {268f42bb-764c-44aa-b8dd-68a9aa910133}, !- Thermal Zone Name
  No;                                     !- Part of Total Floor Area

OS:Surface,
  {7546f63a-5672-4059-9053-91d4327b9310}, !- Handle
  Perimeter_bot_ZN_4_Floor,               !- Name
  Floor,                                  !- Surface Type
  ,                                       !- Construction Name
  {6fb98ad7-db40-4865-93f0-273e14f47409}, !- Space Name
  Surface,                                !- Outside Boundary Condition
  {2cc54376-a2c0-4c07-834f-e7e530e9bd55}, !- Outside Boundary Condition Object
  NoSun,                                  !- Sun Exposure
  NoWind,                                 !- Wind Exposure
  ,                                       !- View Factor to Ground
  ,                                       !- Number of Vertices
  0, 48.7381, 0,                          !- X,Y,Z Vertex 1 {m}
  4.5732, 44.165, 0,                      !- X,Y,Z Vertex 2 {m}
  4.5732, 4.5732, 0,                      !- X,Y,Z Vertex 3 {m}
  0, 0, 0;                                !- X,Y,Z Vertex 4 {m}

OS:ConvergenceLimits,
  {467ea74d-8e34-4117-a990-ba0d7442bdbc}, !- Handle
  2,                                      !- Minimum System Timestep {minutes}
  25;                                     !- Maximum HVAC Iterations

OS:Space,
  {34004a71-3ddc-4b61-89cd-0cbe2153378e}, !- Handle
  Perimeter_mid_ZN_2,                     !- Name
  {69b97d92-3050-4d94-b88f-08dface45449}, !- Space Type Name
  ,                                       !- Default Construction Set Name
  ,                                       !- Default Schedule Set Name
  0,                                      !- Direction of Relative North {deg}
  0,                                      !- X Origin {m}
  0,                                      !- Y Origin {m}
  0,                                      !- Z Origin {m}
  {5039c485-ec75-4a9e-b9fd-7a0e2aa672ab}, !- Building Story Name
  {315267d3-a8eb-4cf4-ba91-deb119bf1659}, !- Thermal Zone Name
  Yes,                                    !- Part of Total Floor Area
  ;                                       !- Design Specification Outdoor Air Object Name

OS:SubSurface,
  {c9ffe620-ee39-45be-b1a0-cf3ecd9e0b9b}, !- Handle
  Perimeter_bot_ZN_4_Wall_West_Window,    !- Name
  FixedWindow,                            !- Sub Surface Type
  ,                                       !- Construction Name
  {f48f578b-de9c-4c28-a2b6-50b70ffaafd8}, !- Surface Name
  ,                                       !- Outside Boundary Condition Object
  ,                                       !- View Factor to Ground
  ,                                       !- Shading Control Name
  ,                                       !- Frame and Divider Name
  1,                                      !- Multiplier
  ,                                       !- Number of Vertices
  0, 48.738, 2.5,                         !- X,Y,Z Vertex 1 {m}
  0, 48.738, 0.9146,                      !- X,Y,Z Vertex 2 {m}
  0, 0, 0.9146,                           !- X,Y,Z Vertex 3 {m}
  0, 0, 2.5;                              !- X,Y,Z Vertex 4 {m}

OS:Space,
  {db10faab-609a-4506-8b8c-17c5ceb47b3b}, !- Handle
  Core_top,                               !- Name
  {69b97d92-3050-4d94-b88f-08dface45449}, !- Space Type Name
  ,                                       !- Default Construction Set Name
  ,                                       !- Default Schedule Set Name
  0,                                      !- Direction of Relative North {deg}
  0,                                      !- X Origin {m}
  0,                                      !- Y Origin {m}
  0,                                      !- Z Origin {m}
  {00fc2a18-5ab8-4fb6-8ee5-71d2e9fa5123}, !- Building Story Name
  {24941cbb-18ff-4b02-bc13-7c54242ec2a2}, !- Thermal Zone Name
  Yes,                                    !- Part of Total Floor Area
  ;                                       !- Design Specification Outdoor Air Object Name

OS:SubSurface,
  {46667ebb-f5bf-4fa5-9e93-991da341f3c2}, !- Handle
  Perimeter_top_ZN_4_Wall_West_Window,    !- Name
  FixedWindow,                            !- Sub Surface Type
  ,                                       !- Construction Name
  {bc162b2a-f80d-47d2-b3c8-ec5b5b174fa9}, !- Surface Name
  ,                                       !- Outside Boundary Condition Object
  ,                                       !- View Factor to Ground
  ,                                       !- Shading Control Name
  ,                                       !- Frame and Divider Name
  1,                                      !- Multiplier
  ,                                       !- Number of Vertices
  0, 48.738, 46.0952,                     !- X,Y,Z Vertex 1 {m}
  0, 48.738, 44.5098,                     !- X,Y,Z Vertex 2 {m}
  0, 0, 44.5098,                          !- X,Y,Z Vertex 3 {m}
  0, 0, 46.0952;                          !- X,Y,Z Vertex 4 {m}

OS:Surface,
  {bc162b2a-f80d-47d2-b3c8-ec5b5b174fa9}, !- Handle
  Perimeter_top_ZN_4_Wall_West,           !- Name
  Wall,                                   !- Surface Type
  ,                                       !- Construction Name
  {850d4284-da0b-4644-a762-d7e2704c9b5b}, !- Space Name
  Outdoors,                               !- Outside Boundary Condition
  ,                                       !- Outside Boundary Condition Object
  SunExposed,                             !- Sun Exposure
  WindExposed,                            !- Wind Exposure
  ,                                       !- View Factor to Ground
  ,                                       !- Number of Vertices
  0, 48.7381, 46.3392,                    !- X,Y,Z Vertex 1 {m}
  0, 48.7381, 43.5952,                    !- X,Y,Z Vertex 2 {m}
  0, 0, 43.5952,                          !- X,Y,Z Vertex 3 {m}
  0, 0, 46.3392;                          !- X,Y,Z Vertex 4 {m}

OS:Surface,
  {375e052e-288e-4696-9f34-fa1e27f0ed1a}, !- Handle
  Basement_Ceiling_5,                     !- Name
  RoofCeiling,                            !- Surface Type
  ,                                       !- Construction Name
  {ba18cfb7-4756-4348-a68c-4ca249aca91a}, !- Space Name
  Surface,                                !- Outside Boundary Condition
  {b643839e-7413-4344-84c1-366265187990}, !- Outside Boundary Condition Object
  NoSun,                                  !- Sun Exposure
  NoWind,                                 !- Wind Exposure
  ,                                       !- View Factor to Ground
  ,                                       !- Number of Vertices
  68.534, 4.5732, 0,                      !- X,Y,Z Vertex 1 {m}
  68.534, 44.165, 0,                      !- X,Y,Z Vertex 2 {m}
  4.5732, 44.165, 0,                      !- X,Y,Z Vertex 3 {m}
  4.5732, 4.5732, 0;                      !- X,Y,Z Vertex 4 {m}

OS:Space,
  {ba18cfb7-4756-4348-a68c-4ca249aca91a}, !- Handle
  Basement,                               !- Name
  {69b97d92-3050-4d94-b88f-08dface45449}, !- Space Type Name
  ,                                       !- Default Construction Set Name
  ,                                       !- Default Schedule Set Name
  0,                                      !- Direction of Relative North {deg}
  0,                                      !- X Origin {m}
  0.04,                                   !- Y Origin {m}
  0.2,                                    !- Z Origin {m}
  {941857eb-2931-49c0-b9fd-3a55c325c704}, !- Building Story Name
  {e4f9064c-038b-4309-8fc2-2f5677e8d663}, !- Thermal Zone Name
  Yes,                                    !- Part of Total Floor Area
  ;                                       !- Design Specification Outdoor Air Object Name

OS:Surface,
  {ee51d6df-2d79-4717-af04-41d2bd157287}, !- Handle
  Perimeter_top_ZN_3_Wall_South,          !- Name
  Wall,                                   !- Surface Type
  ,                                       !- Construction Name
  {0cb0ad63-8884-4844-b712-c5a4ad4316ea}, !- Space Name
  Surface,                                !- Outside Boundary Condition
  {6937c032-628b-4a0c-ab85-afbf050d866b}, !- Outside Boundary Condition Object
  NoSun,                                  !- Sun Exposure
  NoWind,                                 !- Wind Exposure
  ,                                       !- View Factor to Ground
  ,                                       !- Number of Vertices
  4.5732, 44.165, 46.3392,                !- X,Y,Z Vertex 1 {m}
  4.5732, 44.165, 43.5952,                !- X,Y,Z Vertex 2 {m}
  68.534, 44.165, 43.5952,                !- X,Y,Z Vertex 3 {m}
  68.534, 44.165, 46.3392;                !- X,Y,Z Vertex 4 {m}

OS:Space,
  {0cb0ad63-8884-4844-b712-c5a4ad4316ea}, !- Handle
  Perimeter_top_ZN_3,                     !- Name
  {69b97d92-3050-4d94-b88f-08dface45449}, !- Space Type Name
  ,                                       !- Default Construction Set Name
  ,                                       !- Default Schedule Set Name
  0,                                      !- Direction of Relative North {deg}
  0,                                      !- X Origin {m}
  0,                                      !- Y Origin {m}
  0,                                      !- Z Origin {m}
  {00fc2a18-5ab8-4fb6-8ee5-71d2e9fa5123}, !- Building Story Name
  {8aeac677-d0e7-42a4-a48a-0c990c4dd590}, !- Thermal Zone Name
  Yes,                                    !- Part of Total Floor Area
  ;                                       !- Design Specification Outdoor Air Object Name

OS:Surface,
  {06c64ff5-482c-4dbd-8089-aad2fbed950d}, !- Handle
  Perimeter_top_ZN_1_Wall_North,          !- Name
  Wall,                                   !- Surface Type
  ,                                       !- Construction Name
  {f0c9c528-c831-4392-892d-59b6eb85080c}, !- Space Name
  Surface,                                !- Outside Boundary Condition
  {5538e0b1-e56d-4132-9905-4d887d459870}, !- Outside Boundary Condition Object
  NoSun,                                  !- Sun Exposure
  NoWind,                                 !- Wind Exposure
  ,                                       !- View Factor to Ground
  ,                                       !- Number of Vertices
  68.534, 4.5732, 46.3392,                !- X,Y,Z Vertex 1 {m}
  68.534, 4.5732, 43.5952,                !- X,Y,Z Vertex 2 {m}
  4.5732, 4.5732, 43.5952,                !- X,Y,Z Vertex 3 {m}
  4.5732, 4.5732, 46.3392;                !- X,Y,Z Vertex 4 {m}

OS:Space,
  {f0c9c528-c831-4392-892d-59b6eb85080c}, !- Handle
  Perimeter_top_ZN_1,                     !- Name
  {69b97d92-3050-4d94-b88f-08dface45449}, !- Space Type Name
  ,                                       !- Default Construction Set Name
  ,                                       !- Default Schedule Set Name
  0,                                      !- Direction of Relative North {deg}
  0,                                      !- X Origin {m}
  0,                                      !- Y Origin {m}
  0,                                      !- Z Origin {m}
  {00fc2a18-5ab8-4fb6-8ee5-71d2e9fa5123}, !- Building Story Name
  {59fb2bce-bc81-473b-8e62-37f406131a3d}, !- Thermal Zone Name
  Yes,                                    !- Part of Total Floor Area
  ;                                       !- Design Specification Outdoor Air Object Name

OS:Surface,
  {edcb4491-fd8a-462d-9a5a-8c2c228a8487}, !- Handle
  Core_mid_ZN_5_Wall_North,               !- Name
  Wall,                                   !- Surface Type
  ,                                       !- Construction Name
  {7c76989e-d00b-412b-912f-85d3b74b7752}, !- Space Name
  Surface,                                !- Outside Boundary Condition
  {6af09e82-1fea-4126-a1ab-e9c0e19e0a3e}, !- Outside Boundary Condition Object
  NoSun,                                  !- Sun Exposure
  NoWind,                                 !- Wind Exposure
  ,                                       !- View Factor to Ground
  ,                                       !- Number of Vertices
  68.534, 44.165, 22.56,                  !- X,Y,Z Vertex 1 {m}
  68.534, 44.165, 19.816,                 !- X,Y,Z Vertex 2 {m}
  4.5732, 44.165, 19.816,                 !- X,Y,Z Vertex 3 {m}
  4.5732, 44.165, 22.56;                  !- X,Y,Z Vertex 4 {m}

OS:Surface,
  {9bcf3590-fa8c-44bb-9113-3b1b2fef8775}, !- Handle
  Perimeter_top_ZN_4_Ceiling,             !- Name
  RoofCeiling,                            !- Surface Type
  ,                                       !- Construction Name
  {850d4284-da0b-4644-a762-d7e2704c9b5b}, !- Space Name
  Surface,                                !- Outside Boundary Condition
  {547577d6-42de-49cd-aa9b-227d985afe33}, !- Outside Boundary Condition Object
  NoSun,                                  !- Sun Exposure
  NoWind,                                 !- Wind Exposure
  ,                                       !- View Factor to Ground
  ,                                       !- Number of Vertices
  0, 0, 46.3392,                          !- X,Y,Z Vertex 1 {m}
  4.5732, 4.5732, 46.3392,                !- X,Y,Z Vertex 2 {m}
  4.5732, 44.165, 46.3392,                !- X,Y,Z Vertex 3 {m}
  0, 48.7381, 46.3392;                    !- X,Y,Z Vertex 4 {m}

OS:Surface,
  {1095a6f9-cf1a-473b-85e1-b67effc3b9e7}, !- Handle
  GroundFloor_Plenum_Wall_East,           !- Name
  Wall,                                   !- Surface Type
  ,                                       !- Construction Name
  {50e23ca8-44ca-4b21-9e87-28b5a400ab4c}, !- Space Name
  Outdoors,                               !- Outside Boundary Condition
  ,                                       !- Outside Boundary Condition Object
  SunExposed,                             !- Sun Exposure
  WindExposed,                            !- Wind Exposure
  ,                                       !- View Factor to Ground
  ,                                       !- Number of Vertices
  73.1072, 0, 3.9632,                     !- X,Y,Z Vertex 1 {m}
  73.1072, 0, 2.744,                      !- X,Y,Z Vertex 2 {m}
  73.1072, 48.7381, 2.744,                !- X,Y,Z Vertex 3 {m}
  73.1072, 48.7381, 3.9632;               !- X,Y,Z Vertex 4 {m}

OS:Space,
  {b25f5686-3c4b-4c8e-a562-b2d0a955a08f}, !- Handle
  Perimeter_mid_ZN_1,                     !- Name
  {69b97d92-3050-4d94-b88f-08dface45449}, !- Space Type Name
  ,                                       !- Default Construction Set Name
  ,                                       !- Default Schedule Set Name
  0,                                      !- Direction of Relative North {deg}
  0,                                      !- X Origin {m}
  0,                                      !- Y Origin {m}
  0,                                      !- Z Origin {m}
  {5039c485-ec75-4a9e-b9fd-7a0e2aa672ab}, !- Building Story Name
  {50733183-f70a-4974-a489-08bfeb4e45ba}, !- Thermal Zone Name
  Yes,                                    !- Part of Total Floor Area
  ;                                       !- Design Specification Outdoor Air Object Name

OS:SubSurface,
  {a98164fa-7dde-42e9-8d01-d47d0c9ccef3}, !- Handle
  Perimeter_bot_ZN_3_Wall_North_Window,   !- Name
  FixedWindow,                            !- Sub Surface Type
  ,                                       !- Construction Name
  {c41118c0-17a4-402c-97f7-df8b06d6318f}, !- Surface Name
  ,                                       !- Outside Boundary Condition Object
  ,                                       !- View Factor to Ground
  ,                                       !- Shading Control Name
  ,                                       !- Frame and Divider Name
  1,                                      !- Multiplier
  ,                                       !- Number of Vertices
  73.107, 48.7381, 2.5,                   !- X,Y,Z Vertex 1 {m}
  73.107, 48.7381, 0.9146,                !- X,Y,Z Vertex 2 {m}
  0, 48.7381, 0.9146,                     !- X,Y,Z Vertex 3 {m}
  0, 48.7381, 2.5;                        !- X,Y,Z Vertex 4 {m}

OS:Surface,
  {c41118c0-17a4-402c-97f7-df8b06d6318f}, !- Handle
  Perimeter_bot_ZN_3_Wall_North,          !- Name