
OS:Version,
  {85e24e7c-a43d-4d80-b3c0-bcb810f552c8}, !- Handle
  1.0.0;                                  !- Version Identifier

OS:Site,
  {b0b47b04-c8af-48f5-8901-19e79347e411}, !- Handle
  Chicago Ohare Intl Ap IL USA WMO=725300, !- Name
  41.99,                                  !- Latitude {deg}
  -87.91,                                 !- Longitude {deg}
  -6,                                     !- Time Zone {hr}
  205,                                    !- Elevation {m}
  Suburbs;                                !- Terrain

OS:SimulationControl,
  {fd9ffbcf-6e35-41e4-9a75-84f4176bb822}, !- Handle
  No,                                     !- Do Zone Sizing Calculation
  No,                                     !- Do System Sizing Calculation
  No,                                     !- Do Plant Sizing Calculation
  Yes,                                    !- Run Simulation for Sizing Periods
  No,                                     !- Run Simulation for Weather File Run Periods
  0.039999999,                            !- Loads Convergence Tolerance Value
  0.4,                                    !- Temperature Convergence Tolerance Value {deltaC}
  FullExterior,                           !- Solar Distribution
  25,                                     !- Maximum Number of Warmup Days
  6;                                      !- Minimum Number of Warmup Days

OS:HeatBalanceAlgorithm,
  {d20b8d49-2814-4d60-834b-4108765ac232}, !- Handle
  ConductionTransferFunction,             !- Algorithm
  200;                                    !- Surface Temperature Upper Limit {F}

OS:Construction,
  {3e21ac59-e29c-4527-9d27-0d51af2d421f}, !- Handle
  FLOOR34,                                !- Name
  {ff526601-aea7-4c7d-907f-1446a6309dbd}, !- Surface Rendering Name
  {accd79cb-885c-4293-85c4-ef0180df8e31}; !- Layer 1

OS:Material,
  {accd79cb-885c-4293-85c4-ef0180df8e31}, !- Handle
  C10 - 8 IN HW CONCRETE,                 !- Name
  MediumRough,                            !- Roughness
  0.2033016,                              !- Thickness {m}
  1.729577,                               !- Conductivity {W/m-K}
  2242.585,                               !- Density {kg/m3}
  836.8,                                  !- Specific Heat {J/kg-K}
  0.9,                                    !- Thermal Absorptance
  0.65,                                   !- Solar Absorptance
  0.65;                                   !- Visible Absorptance

OS:ShadingSurface,
  {a5aa6b01-2d9d-43bb-b68b-7fe4aa60c63d}, !- Handle
  Zn001:Wall001:Door001:Shade001,         !- Name
  ,                                       !- Construction Name
  {055499c0-2b92-4df6-afb6-4c971e8310fc}, !- Shading Surface Group Name
  ,                                       !- Transmittance Schedule Name
  ,                                       !- Number of Vertices
  17, -3, 5.6,                            !- X,Y,Z Vertex 1 {m}
  17, 2.42480066231176e-015, 5.6,         !- X,Y,Z Vertex 2 {m}
  14, 2.05740662256756e-015, 5.6,         !- X,Y,Z Vertex 3 {m}
  14, -3, 5.6;                            !- X,Y,Z Vertex 4 {m}

OS:Surface,
  {375ae0b3-7ca8-4abf-9cb2-d5a687e15adb}, !- Handle
  Zn001:Wall001,                          !- Name
  Wall,                                   !- Surface Type
  {598df264-8f90-43e5-959a-28b4253c356a}, !- Construction Name
  {b76f4c78-efd9-4a45-a715-ff0baa1066ff}, !- Space Name
  Outdoors,                               !- Outside Boundary Condition
  ,                                       !- Outside Boundary Condition Object
  SunExposed,                             !- Sun Exposure
  WindExposed,                            !- Wind Exposure
  ,                                       !- View Factor to Ground
  ,                                       !- Number of Vertices
  -7.49879891330927e-032, 6.12323399573675e-016, 10, !- X,Y,Z Vertex 1 {m}
  -2.11029637628527e-046, 1.72318776136478e-030, -1.05514818814263e-046, !- X,Y,Z Vertex 2 {m}
  20, 2.44929359829471e-015, 1.10422484805624e-046, !- X,Y,Z Vertex 3 {m}
  20, 3.06161699786838e-015, 10;          !- X,Y,Z Vertex 4 {m}

OS:Construction,
  {598df264-8f90-43e5-959a-28b4253c356a}, !- Handle
  EXTERIOR,                               !- Name
  {0c9935f6-77c2-4e72-8d91-956f1d0e6311}, !- Surface Rendering Name
  {41568258-30d8-4b18-aa8e-5456530a3af0}, !- Layer 1
  {82a8a932-29a3-4839-9748-d6bad7dfcef5}, !- Layer 2
  {8486fd75-e202-4eff-9622-d63364b8d0ba}, !- Layer 3
  {e42d57c9-7dde-40d9-ab0f-3da5bf6e4161}; !- Layer 4

OS:Material,
  {41568258-30d8-4b18-aa8e-5456530a3af0}, !- Handle
  A2 - 4 IN DENSE FACE BRICK,             !- Name
  Rough,                                  !- Roughness
  0.1014984,                              !- Thickness {m}
  1.245296,                               !- Conductivity {W/m-K}
  2082.4,                                 !- Density {kg/m3}
  920.48,                                 !- Specific Heat {J/kg-K}
  0.9,                                    !- Thermal Absorptance
  0.93,                                   !- Solar Absorptance
  0.93;                                   !- Visible Absorptance

OS:Material,
  {82a8a932-29a3-4839-9748-d6bad7dfcef5}, !- Handle
  B3 - 2 IN INSULATION,                   !- Name
  VeryRough,                              !- Roughness
  0.050901599,                            !- Thickness {m}
  0.04323943,                             !- Conductivity {W/m-K}
  32.03693,                               !- Density {kg/m3}
  836.8,                                  !- Specific Heat {J/kg-K}
  0.9,                                    !- Thermal Absorptance
  0.5,                                    !- Solar Absorptance
  0.5;                                    !- Visible Absorptance

OS:Material,
  {8486fd75-e202-4eff-9622-d63364b8d0ba}, !- Handle
  C2 - 4 IN LW CONCRETE BLOCK,            !- Name
  MediumRough,                            !- Roughness
  0.1014984,                              !- Thickness {m}
  0.380507,                               !- Conductivity {W/m-K}
  608.7016,                               !- Density {kg/m3}
  836.8,                                  !- Specific Heat {J/kg-K}
  0.9,                                    !- Thermal Absorptance
  0.65,                                   !- Solar Absorptance
  0.65;                                   !- Visible Absorptance

OS:Material,
  {e42d57c9-7dde-40d9-ab0f-3da5bf6e4161}, !- Handle
  E1 - 3 / 4 IN PLASTER OR GYP BOARD,     !- Name
  Smooth,                                 !- Roughness
  0.01905,                                !- Thickness {m}
  0.7264224,                              !- Conductivity {W/m-K}
  1601.846,                               !- Density {kg/m3}
  836.8,                                  !- Specific Heat {J/kg-K}
  0.9,                                    !- Thermal Absorptance
  0.92,                                   !- Solar Absorptance
  0.92;                                   !- Visible Absorptance

OS:ThermalZone,
  {9829f709-ec99-4144-bd50-97780bba9ce6}, !- Handle
  ZONE 1 Thermal Zone,                    !- Name
  1,                                      !- Multiplier
  ,                                       !- Ceiling Height {m}
  ,                                       !- Volume {m3}
  ,                                       !- Floor Area {m2}
  ,                                       !- Zone Inside Convection Algorithm
  ,                                       !- Zone Outside Convection Algorithm
  ,                                       !- Zone Conditioning Equipment List Name
  {29a89926-f117-47cb-b2be-3ae85639b71e}, !- Zone Air Inlet Port List
  {64c6453c-728d-4ac6-9e0c-d1746d6b727e}, !- Zone Air Exhaust Port List
  {b508a457-6396-4c91-b1dc-3a190fb57267}, !- Zone Air Node Name
  ,                                       !- Zone Return Air Node Name
  ,                                       !- Primary Daylighting Control Name
  ,                                       !- Fraction of Zone Controlled by Primary Daylighting Control
  ,                                       !- Secondary Daylighting Control Name
  ,                                       !- Fraction of Zone Controlled by Secondary Daylighting Control
  ,                                       !- Illuminance Map Name
  {69eafcf0-2178-4000-b61d-7d2eaa1d7ce7}, !- Group Rendering Name
  {0f5c2993-90bc-4be9-81bd-fcf3ae43cbbb}, !- Thermostat Name
  No;                                     !- Use Ideal Air Loads

OS:Node,
  {c9bf08bd-c514-40f8-a2d3-b11528b8479e}, !- Handle
  {9aa667a5-b5b2-4f6a-bc23-6f92418baae9}, !- Name
  {b508a457-6396-4c91-b1dc-3a190fb57267}, !- Inlet Port
  ;                                       !- Outlet Port

OS:Connection,
  {b508a457-6396-4c91-b1dc-3a190fb57267}, !- Handle
  {357f6a05-31d3-4c7b-aa0b-a28b83e462cc}, !- Name
  {9829f709-ec99-4144-bd50-97780bba9ce6}, !- Source Object
  11,                                     !- Outlet Port
  {c9bf08bd-c514-40f8-a2d3-b11528b8479e}, !- Target Object
  2;                                      !- Inlet Port

OS:PortList,
  {29a89926-f117-47cb-b2be-3ae85639b71e}, !- Handle
  {d0945574-8a56-41b7-9a00-16af2e39f609}, !- Name
  {9829f709-ec99-4144-bd50-97780bba9ce6}; !- HVAC Component

OS:PortList,
  {64c6453c-728d-4ac6-9e0c-d1746d6b727e}, !- Handle
  {681c0032-91aa-4677-9221-81a9ba862d01}, !- Name
  {9829f709-ec99-4144-bd50-97780bba9ce6}; !- HVAC Component

OS:Sizing:Zone,
  {916c8e1c-f628-48f3-8d64-6b0891b03184}, !- Handle
  {9829f709-ec99-4144-bd50-97780bba9ce6}, !- Zone or ZoneList Name
  14,                                     !- Zone Cooling Design Supply Air Temperature {C}
  40,                                     !- Zone Heating Design Supply Air Temperature {C}
  0.0085,                                 !- Zone Cooling Design Supply Air Humidity Ratio {kg-H2O/kg-air}
  0.008,                                  !- Zone Heating Design Supply Air Humidity Ratio {kg-H2O/kg-air}
  ,                                       !- Zone Heating Sizing Factor
  ,                                       !- Zone Cooling Sizing Factor
  DesignDay,                              !- Cooling Design Air Flow Method
  ,                                       !- Cooling Design Air Flow Rate {m3/s}
  ,                                       !- Cooling Minimum Air Flow per Zone Floor Area {m3/s-m2}
  ,                                       !- Cooling Minimum Air Flow {m3/s}
  ,                                       !- Cooling Minimum Air Flow Fraction
  DesignDay,                              !- Heating Design Air Flow Method
  ,                                       !- Heating Design Air Flow Rate {m3/s}
  ,                                       !- Heating Maximum Air Flow per Zone Floor Area {m3/s-m2}
  ,                                       !- Heating Maximum Air Flow {m3/s}
  ,                                       !- Heating Maximum Air Flow Fraction
  ,                                       !- Design Zone Air Distribution Effectiveness in Cooling Mode
  ;                                       !- Design Zone Air Distribution Effectiveness in Heating Mode

OS:ZoneHVAC:EquipmentList,
  {217327cf-f68a-45db-9360-eb550f71cdb8}, !- Handle
  {7b4193fb-f4b4-4598-936a-79644f90e5d0}, !- Name
  {9829f709-ec99-4144-bd50-97780bba9ce6}; !- Thermal Zone

OS:Space,
  {b76f4c78-efd9-4a45-a715-ff0baa1066ff}, !- Handle
  ZONE 1,                                 !- Name
  ,                                       !- Space Type Name
  ,                                       !- Default Construction Set Name
  ,                                       !- Default Schedule Set Name
  0,                                      !- Direction of Relative North {deg}
  6,                                      !- X Origin {m}
  6,                                      !- Y Origin {m}
  0,                                      !- Z Origin {m}
  ,                                       !- Building Story Name
  {9829f709-ec99-4144-bd50-97780bba9ce6}; !- Thermal Zone Name

OS:ThermostatSetpoint:DualSetpoint,
  {0f5c2993-90bc-4be9-81bd-fcf3ae43cbbb}, !- Handle
  {f581be16-7e12-4e42-b081-b60dacb5fd5d}, !- Name
  {7287d61c-cafb-49a7-a67e-83e6ea79c996}, !- Heating Setpoint Temperature Schedule Name
  {055f0838-cc3c-4991-86e7-a2b3e9ea27c1}; !- Cooling Setpoint Temperature Schedule Name

OS:Schedule:Compact,
  {7287d61c-cafb-49a7-a67e-83e6ea79c996}, !- Handle
  ZONE HEATING SETPOINTS,                 !- Name
  {bd95435e-aadc-47a4-af16-9e91ca7001fa}, !- Schedule Type Limits Name
  Through: 12/31,                         !- Field 1
  For: Weekdays WinterDesignDay,          !- Field 2
  Until: 7:00,                            !- Field 3
  15.60,                                  !- Field 4
  Until: 17:00,                           !- Field 5
  19.40,                                  !- Field 6
  Until: 24:00,                           !- Field 7
  15.60,                                  !- Field 8
  For: AllOtherDays,                      !- Field 9
  Until: 24:00,                           !- Field 10
  15.60;                                  !- Field 11

OS:ScheduleTypeLimits,
  {bd95435e-aadc-47a4-af16-9e91ca7001fa}, !- Handle
  Temperature,                            !- Name
  -100,                                   !- Lower Limit Value {BasedOnField A4}
  200,                                    !- Upper Limit Value {BasedOnField A4}
  CONTINUOUS,                             !- Numeric Type
  Temperature;                            !- Unit Type

OS:Schedule:Compact,
  {055f0838-cc3c-4991-86e7-a2b3e9ea27c1}, !- Handle
  ZONE COOLING SETPOINTS,                 !- Name
  {bd95435e-aadc-47a4-af16-9e91ca7001fa}, !- Schedule Type Limits Name
  Through: 12/31,                         !- Field 1
  For: Weekdays SummerDesignDay,          !- Field 2
  Until: 7:00,                            !- Field 3
  100.00,                                 !- Field 4
  Until: 17:00,                           !- Field 5
  26.10,                                  !- Field 6
  Until: 24:00,                           !- Field 7
  100.00,                                 !- Field 8
  For: AllOtherDays,                      !- Field 9
  Until: 24:00,                           !- Field 10
  100.00;                                 !- Field 11

OS:ShadingSurfaceGroup,
  {055499c0-2b92-4df6-afb6-4c971e8310fc}, !- Handle
  {eae7ea55-4ae7-4f9d-902a-e28e45f1efda}, !- Name
  Space,                                  !- Shading Surface Type
  {b76f4c78-efd9-4a45-a715-ff0baa1066ff}, !- Space Name
  ,                                       !- Direction of Relative North {deg}
  ,                                       !- X Origin {m}
  ,                                       !- Y Origin {m}
  ;                                       !- Z Origin {m}

OS:Surface,
  {4bff8926-ec4e-428b-a2f0-516156fa9005}, !- Handle
  Zn002:Flr001,                           !- Name
  Floor,                                  !- Surface Type
  {68b3c21b-dc34-4a3c-b8f8-822755f26cc0}, !- Construction Name
  {6233d630-620f-49dc-8a1d-76fe419212fd}, !- Space Name
  Adiabatic,                              !- Outside Boundary Condition
  ,                                       !- Outside Boundary Condition Object
  NoSun,                                  !- Sun Exposure
  NoWind,                                 !- Wind Exposure
  ,                                       !- View Factor to Ground
  ,                                       !- Number of Vertices
  20, 20, 2.44929359829471e-015,          !- X,Y,Z Vertex 1 {m}
  20, 1.22464679914735e-015, 2.44929359829471e-015, !- X,Y,Z Vertex 2 {m}
  3.87555253539558e-047, 4.51275469661476e-063, -3.16462880407141e-031, !- X,Y,Z Vertex 3 {m}
  -1.22464679914735e-015, 20, -1.43002737264697e-031; !- X,Y,Z Vertex 4 {m}

OS:Construction,
  {68b3c21b-dc34-4a3c-b8f8-822755f26cc0}, !- Handle
  FLOOR,                                  !- Name
  {85c62adf-6433-416d-8e48-38e3b2ffdb62}, !- Surface Rendering Name
  {813acef8-a877-4ac0-a041-afbce625a18a}, !- Layer 1
  {63eef764-b226-466d-8c56-fff1eae9c9ff}, !- Layer 2
  {fffae627-cc21-4da5-854a-496f51057358}; !- Layer 3

OS:Material,
  {813acef8-a877-4ac0-a041-afbce625a18a}, !- Handle
  E5 - ACOUSTIC TILE,                     !- Name
  MediumSmooth,                           !- Roughness
  0.01905,                                !- Thickness {m}
  0.0605352,                              !- Conductivity {W/m-K}
  480.5539,                               !- Density {kg/m3}
  836.8,                                  !- Specific Heat {J/kg-K}
  0.9,                                    !- Thermal Absorptance
  0.32,                                   !- Solar Absorptance
  0.32;                                   !- Visible Absorptance

OS:Material:AirGap,
  {63eef764-b226-466d-8c56-fff1eae9c9ff}, !- Handle
  E4 - CEILING AIRSPACE,                  !- Name
  0.176228;                               !- Thermal Resistance {m2-K/W}

OS:Material,
  {fffae627-cc21-4da5-854a-496f51057358}, !- Handle
  C5 - 4 IN HW CONCRETE,                  !- Name
  MediumRough,                            !- Roughness
  0.1014984,                              !- Thickness {m}
  1.729577,                               !- Conductivity {W/m-K}
  2242.585,                               !- Density {kg/m3}
  836.8,                                  !- Specific Heat {J/kg-K}
  0.9,                                    !- Thermal Absorptance
  0.65,                                   !- Solar Absorptance
  0.65;                                   !- Visible Absorptance

OS:ThermalZone,
  {0e70c8bd-3c0c-4d5a-b4d9-f6bafe9abbad}, !- Handle
  ZONE 2 Thermal Zone,                    !- Name
  1,                                      !- Multiplier
  ,                                       !- Ceiling Height {m}
  ,                                       !- Volume {m3}
  ,                                       !- Floor Area {m2}
  ,                                       !- Zone Inside Convection Algorithm
  ,                                       !- Zone Outside Convection Algorithm
  ,                                       !- Zone Conditioning Equipment List Name
  {2bd86802-7e41-4e14-aebd-31d8c46984ac}, !- Zone Air Inlet Port List
  {3e006629-ada8-41be-9290-dc3fe2e92358}, !- Zone Air Exhaust Port List
  {7634d096-3e93-4625-830f-d71c02dcf3e6}, !- Zone Air Node Name
  ,                                       !- Zone Return Air Node Name
  ,                                       !- Primary Daylighting Control Name
  ,                                       !- Fraction of Zone Controlled by Primary Daylighting Control
  ,                                       !- Secondary Daylighting Control Name
  ,                                       !- Fraction of Zone Controlled by Secondary Daylighting Control
  ,                                       !- Illuminance Map Name
  {633ac313-ebe8-4b6e-8ea8-6db48532c929}, !- Group Rendering Name
  {6043db8b-5799-4de6-859f-aff0192e0fcc}, !- Thermostat Name
  No;                                     !- Use Ideal Air Loads

OS:Node,
  {9f2a78f3-4992-4c83-8ee1-fb6a72ed4a00}, !- Handle
  {c03208ba-0c63-48a1-bb57-c71050204333}, !- Name
  {7634d096-3e93-4625-830f-d71c02dcf3e6}, !- Inlet Port
  ;                                       !- Outlet Port

OS:Connection,
  {7634d096-3e93-4625-830f-d71c02dcf3e6}, !- Handle
  {2a9d64a7-9408-4266-b289-14d0046dcdba}, !- Name
  {0e70c8bd-3c0c-4d5a-b4d9-f6bafe9abbad}, !- Source Object
  11,                                     !- Outlet Port
  {9f2a78f3-4992-4c83-8ee1-fb6a72ed4a00}, !- Target Object
  2;                                      !- Inlet Port

OS:PortList,
  {2bd86802-7e41-4e14-aebd-31d8c46984ac}, !- Handle
  {57f785a7-001f-4515-9877-d91df61cc298}, !- Name
  {0e70c8bd-3c0c-4d5a-b4d9-f6bafe9abbad}; !- HVAC Component

OS:PortList,
  {3e006629-ada8-41be-9290-dc3fe2e92358}, !- Handle
  {1f295491-83ea-4459-8bd9-ec7f14b5c080}, !- Name
  {0e70c8bd-3c0c-4d5a-b4d9-f6bafe9abbad}; !- HVAC Component

OS:Sizing:Zone,
  {7d1ad211-2cd1-428d-a295-217fa46f5500}, !- Handle
  {0e70c8bd-3c0c-4d5a-b4d9-f6bafe9abbad}, !- Zone or ZoneList Name
  14,                                     !- Zone Cooling Design Supply Air Temperature {C}
  40,                                     !- Zone Heating Design Supply Air Temperature {C}
  0.0085,                                 !- Zone Cooling Design Supply Air Humidity Ratio {kg-H2O/kg-air}
  0.008,                                  !- Zone Heating Design Supply Air Humidity Ratio {kg-H2O/kg-air}
  ,                                       !- Zone Heating Sizing Factor
  ,                                       !- Zone Cooling Sizing Factor
  DesignDay,                              !- Cooling Design Air Flow Method
  ,                                       !- Cooling Design Air Flow Rate {m3/s}
  ,                                       !- Cooling Minimum Air Flow per Zone Floor Area {m3/s-m2}
  ,                                       !- Cooling Minimum Air Flow {m3/s}
  ,                                       !- Cooling Minimum Air Flow Fraction
  DesignDay,                              !- Heating Design Air Flow Method
  ,                                       !- Heating Design Air Flow Rate {m3/s}
  ,                                       !- Heating Maximum Air Flow per Zone Floor Area {m3/s-m2}
  ,                                       !- Heating Maximum Air Flow {m3/s}
  ,                                       !- Heating Maximum Air Flow Fraction
  ,                                       !- Design Zone Air Distribution Effectiveness in Cooling Mode
  ;                                       !- Design Zone Air Distribution Effectiveness in Heating Mode

OS:ZoneHVAC:EquipmentList,
  {411cb50d-3ad4-47ad-8682-c1383c0ca543}, !- Handle
  {e9f00a7c-e58b-4ff2-974c-f11c56a52206}, !- Name
  {0e70c8bd-3c0c-4d5a-b4d9-f6bafe9abbad}; !- Thermal Zone

OS:Space,
  {6233d630-620f-49dc-8a1d-76fe419212fd}, !- Handle
  ZONE 2,                                 !- Name
  ,                                       !- Space Type Name
  ,                                       !- Default Construction Set Name
  ,                                       !- Default Schedule Set Name
  0,                                      !- Direction of Relative North {deg}
  26,                                     !- X Origin {m}
  6,                                      !- Y Origin {m}
  0,                                      !- Z Origin {m}
  ,                                       !- Building Story Name
  {0e70c8bd-3c0c-4d5a-b4d9-f6bafe9abbad}, !- Thermal Zone Name
  ,                                       !- Part of Total Floor Area
  ;                                       !- Design Specification Outdoor Air Object Name

OS:ThermostatSetpoint:DualSetpoint,
  {6043db8b-5799-4de6-859f-aff0192e0fcc}, !- Handle
  {df8f8ca5-1aac-46f2-8715-3c842d5c9c8b}, !- Name
  {7287d61c-cafb-49a7-a67e-83e6ea79c996}, !- Heating Setpoint Temperature Schedule Name
  {055f0838-cc3c-4991-86e7-a2b3e9ea27c1}; !- Cooling Setpoint Temperature Schedule Name

OS:ShadingSurface,
  {65eaa64e-ff2d-420b-a18c-62629ba73b6b}, !- Handle
  Zn002:Wall002:Shade002 Right,           !- Name
  ,                                       !- Construction Name
  {09e6e9a9-1fdf-4f79-9821-9a68c937296b}, !- Shading Surface Group Name
  ,                                       !- Transmittance Schedule Name
  ,                                       !- Number of Vertices
  23, 12.1, 8.1,                          !- X,Y,Z Vertex 1 {m}
  23, 12.1, 2.9,                          !- X,Y,Z Vertex 2 {m}
  20, 12.1, 2.9,                          !- X,Y,Z Vertex 3 {m}
  20, 12.1, 8.1;                          !- X,Y,Z Vertex 4 {m}

OS:Surface,
  {b1a8c784-d366-4c5d-a08a-9addad8999f5}, !- Handle
  Zn002:Wall002,                          !- Name
  Wall,                                   !- Surface Type
  {598df264-8f90-43e5-959a-28b4253c356a}, !- Construction Name
  {6233d630-620f-49dc-8a1d-76fe419212fd}, !- Space Name
  Outdoors,                               !- Outside Boundary Condition
  ,                                       !- Outside Boundary Condition Object
  SunExposed,                             !- Sun Exposure
  WindExposed,                            !- Wind Exposure
  ,                                       !- View Factor to Ground
  ,                                       !- Number of Vertices
  20, -3.74939945665464e-032, 10,         !- X,Y,Z Vertex 1 {m}
  20, 0, 0,                               !- X,Y,Z Vertex 2 {m}
  20, 20, 0,                              !- X,Y,Z Vertex 3 {m}
  20, 20, 10;                             !- X,Y,Z Vertex 4 {m}

OS:ShadingSurfaceGroup,
  {09e6e9a9-1fdf-4f79-9821-9a68c937296b}, !- Handle
  {c20c0983-ef3a-4bc0-8158-4ad9ddb5b9b5}, !- Name
  Space,                                  !- Shading Surface Type
  {6233d630-620f-49dc-8a1d-76fe419212fd}, !- Space Name
  ,                                       !- Direction of Relative North {deg}
  ,                                       !- X Origin {m}
  ,                                       !- Y Origin {m}
  ;                                       !- Z Origin {m}

OS:Schedule:Compact,
  {5d848a63-3a5c-4c25-b211-9b7f5756fa16}, !- Handle
  ZONE CONTROL TYPE SCHEDULE,             !- Name
  {2928b726-10e2-47f1-b338-f2eaf7652a0a}, !- Schedule Type Limits Name
  Through: 12/31,                         !- Field 1
  For: AllDays,                           !- Field 2
  Until: 24:00,                           !- Field 3
  4;                                      !- Field 4

OS:ScheduleTypeLimits,
  {2928b726-10e2-47f1-b338-f2eaf7652a0a}, !- Handle
  ControlType,                            !- Name
  0,                                      !- Lower Limit Value {BasedOnField A4}
  4,                                      !- Upper Limit Value {BasedOnField A4}
  DISCRETE,                               !- Numeric Type
  ControlMode;                            !- Unit Type

OS:ShadingSurface,
  {fefe65fc-3df6-4788-a90d-f0021cd054fa}, !- Handle
  Zn001:Wall001:Win001:Shade001,          !- Name
  ,                                       !- Construction Name
  {055499c0-2b92-4df6-afb6-4c971e8310fc}, !- Shading Surface Group Name
  ,                                       !- Transmittance Schedule Name
  ,                                       !- Number of Vertices
  7.2, -3, 8.7,                           !- X,Y,Z Vertex 1 {m}
  7.2, 1.41446705301519e-015, 8.7,        !- X,Y,Z Vertex 2 {m}
  3.8, 9.98087141305096e-016, 8.7,        !- X,Y,Z Vertex 3 {m}
  3.8, -3, 8.7;                           !- X,Y,Z Vertex 4 {m}

OS:Material,
  {4fedf976-e191-4886-9415-ba53f15eea8d}, !- Handle
  B6 - 2 IN DENSE INSULATION,             !- Name
  VeryRough,                              !- Roughness
  0.050901599,                            !- Thickness {m}
  0.04323943,                             !- Conductivity {W/m-K}
  91.30524,                               !- Density {kg/m3}
  836.8,                                  !- Specific Heat {J/kg-K}
  0.9,                                    !- Thermal Absorptance
  0.5,                                    !- Solar Absorptance
  0.5;                                    !- Visible Absorptance

OS:Surface,
  {ad322519-d8ef-4147-976c-561015bf53b6}, !- Handle
  Zn002:Wall004,                          !- Name
  Wall,                                   !- Surface Type
  {38c58536-c6f5-4698-a053-b85ed1df69fb}, !- Construction Name
  {6233d630-620f-49dc-8a1d-76fe419212fd}, !- Space Name
  Adiabatic,                              !- Outside Boundary Condition
  ,                                       !- Outside Boundary Condition Object
  NoSun,                                  !- Sun Exposure
  NoWind,                                 !- Wind Exposure
  ,                                       !- View Factor to Ground
  ,                                       !- Number of Vertices
  6.12323399573678e-016, 20, 10,          !- X,Y,Z Vertex 1 {m}
  -1.28237228752728e-030, 20, 7.85226558617777e-047, !- X,Y,Z Vertex 2 {m}
  3.67394039744206e-015, 1.17783983792666e-046, -3.92613279308888e-047, !- X,Y,Z Vertex 3 {m}
  4.28626379701574e-015, 1.12481983699639e-031, 10; !- X,Y,Z Vertex 4 {m}

OS:Construction,
  {38c58536-c6f5-4698-a053-b85ed1df69fb}, !- Handle
  INTERIOR,                               !- Name
  {1f8abfea-f970-464f-90ba-017bc9823de6}, !- Surface Rendering Name
  {33083aad-0d0e-4f97-b3f4-1fb281a40add}; !- Layer 1

OS:Material,
  {33083aad-0d0e-4f97-b3f4-1fb281a40add}, !- Handle
  C7 - 8 IN LW CONCRETE BLOCK,            !- Name
  Rough,                                  !- Roughness
  0.2033016,                              !- Thickness {m}
  0.5707605,                              !- Conductivity {W/m-K}
  608.7016,                               !- Density {kg/m3}
  836.8,                                  !- Specific Heat {J/kg-K}
  0.9,                                    !- Thermal Absorptance
  0.65,                                   !- Solar Absorptance
  0.65;                                   !- Visible Absorptance

OS:Output:Variable,
  {24b479f2-348e-4176-9c1a-de27a9a911ae}, !- Handle
  {bcf7123d-eb34-4560-b9f7-0c6bed04653c}, !- Name
  *,                                      !- Key Value
  Zone Air Temperature,                   !- Variable Name
  hourly;                                 !- Reporting Frequency

OS:Output:Variable,
  {53d727e9-f67b-4d0c-b65a-0425b44e40dd}, !- Handle
  {a9fbd575-0f6b-4038-ae7b-69f631573a1e}, !- Name
  *,                                      !- Key Value
  Zone Air System Sensible Heating Energy, !- Variable Name
  hourly;                                 !- Reporting Frequency

OS:SizingPeriod:DesignDay,
  {9c0df6e2-293f-4800-b694-996b57defd78}, !- Handle
  Chicago Ohare Intl Ap Ann Htg 99% Condns DB, !- Name
  -16.6,                                  !- Maximum Dry-Bulb Temperature {C}
  0,                                      !- Daily Dry-Bulb Temperature Range {deltaC}