
OS:Version,
  {e7888514-d16d-49c1-bc65-9fe695eec9d3}, !- Handle
  1.0.6;                                  !- Version Identifier

OS:Site,
  {69c1ce97-d16d-45e5-bd2a-eec023f4d265}, !- Handle
  Denver-Stapleton CO,                    !- Name
  39.76,                                  !- Latitude {deg}
  -104.86,                                !- Longitude {deg}
  -7,                                     !- Time Zone {hr}
  1610.9999784,                           !- Elevation {m}
  Urban;                                  !- Terrain

OS:SimulationControl,
  {e5994b19-3aa2-4030-9a0c-06f1d9d3b7d7}, !- Handle
  Yes,                                    !- Do Zone Sizing Calculation
  No,                                     !- Do System Sizing Calculation
  Yes,                                    !- Do Plant Sizing Calculation
  No,                                     !- Run Simulation for Sizing Periods
  Yes,                                    !- Run Simulation for Weather File Run Periods
  0.05,                                   !- Loads Convergence Tolerance Value
  0.05,                                   !- Temperature Convergence Tolerance Value {deltaC}
  FullExterior,                           !- Solar Distribution
  50;                                     !- Maximum Number of Warmup Days

OS:ThermalZone,
  {75c31e25-e253-4732-8daa-996cf182e30f}, !- Handle
  sleeping Thermal Zone,                  !- Name
  1,                                      !- Multiplier
  2.4384,                                 !- Ceiling Height {m}
  ,                                       !- Volume {m3}
  ,                                       !- Floor Area {m2}
  ,                                       !- Zone Inside Convection Algorithm
  ,                                       !- Zone Outside Convection Algorithm
  ,                                       !- Zone Conditioning Equipment List Name
  {4fd58099-3fdb-4d1d-8219-c7883d3daabf}, !- Zone Air Inlet Port List
  {455e3423-738e-4353-b984-6dc297064133}, !- Zone Air Exhaust Port List
  {d14733e7-af32-4f6e-9240-a1317eed3189}, !- Zone Air Node Name
  ,                                       !- Zone Return Air Node Name
  ,                                       !- Primary Daylighting Control Name
  ,                                       !- Fraction of Zone Controlled by Primary Daylighting Control
  ,                                       !- Secondary Daylighting Control Name
  ,                                       !- Fraction of Zone Controlled by Secondary Daylighting Control
  ,                                       !- Illuminance Map Name
  {51fd0399-b326-4f9e-bd45-853c76b32571}, !- Group Rendering Name
  {e11dcc71-a861-4f6d-b759-7f5040bbbbef}, !- Thermostat Name
  No;                                     !- Use Ideal Air Loads

OS:Node,
  {9a6bc06a-2933-4448-8fc9-7eb3331dd4e9}, !- Handle
  {eb7da94c-6cee-474a-bd78-ac54b50659e0}, !- Name
  {d14733e7-af32-4f6e-9240-a1317eed3189}, !- Inlet Port
  ;                                       !- Outlet Port

OS:Connection,
  {d14733e7-af32-4f6e-9240-a1317eed3189}, !- Handle
  {b50413de-522e-4fbd-8fec-b9e7bbc88413}, !- Name
  {75c31e25-e253-4732-8daa-996cf182e30f}, !- Source Object
  11,                                     !- Outlet Port
  {9a6bc06a-2933-4448-8fc9-7eb3331dd4e9}, !- Target Object
  2;                                      !- Inlet Port

OS:PortList,
  {4fd58099-3fdb-4d1d-8219-c7883d3daabf}, !- Handle
  {027fd7f1-657d-4902-9c01-5f6d55c161f6}, !- Name
  {75c31e25-e253-4732-8daa-996cf182e30f}; !- HVAC Component

OS:PortList,
  {455e3423-738e-4353-b984-6dc297064133}, !- Handle
  {750fcf9c-2a5b-4b4f-bbd6-b17bfea78ec6}, !- Name
  {75c31e25-e253-4732-8daa-996cf182e30f}; !- HVAC Component

OS:Sizing:Zone,
  {be0665d4-8852-4a78-91c0-442a2f6c792e}, !- Handle
  {75c31e25-e253-4732-8daa-996cf182e30f}, !- Zone or ZoneList Name
  14,                                     !- Zone Cooling Design Supply Air Temperature {C}
  40,                                     !- Zone Heating Design Supply Air Temperature {C}
  0.0085,                                 !- Zone Cooling Design Supply Air Humidity Ratio {kg-H2O/kg-air}
  0.008,                                  !- Zone Heating Design Supply Air Humidity Ratio {kg-H2O/kg-air}
  ,                                       !- Zone Heating Sizing Factor
  ,                                       !- Zone Cooling Sizing Factor
  DesignDay,                              !- Cooling Design Air Flow Method
  ,                                       !- Cooling Design Air Flow Rate {m3/s}
  ,                                       !- Cooling Minimum Air Flow per Zone Floor Area {m3/s-m2}
  ,                                       !- Cooling Minimum Air Flow {m3/s}
  ,                                       !- Cooling Minimum Air Flow Fraction
  DesignDay,                              !- Heating Design Air Flow Method
  ,                                       !- Heating Design Air Flow Rate {m3/s}
  ,                                       !- Heating Maximum Air Flow per Zone Floor Area {m3/s-m2}
  ,                                       !- Heating Maximum Air Flow {m3/s}
  ,                                       !- Heating Maximum Air Flow Fraction
  ,                                       !- Design Zone Air Distribution Effectiveness in Cooling Mode
  ;                                       !- Design Zone Air Distribution Effectiveness in Heating Mode

OS:ZoneHVAC:EquipmentList,
  {3120bb80-ead5-4fa8-85bb-3c2c06f6894f}, !- Handle
  {fb186065-f62f-4725-b02f-ffcc4cd30e37}, !- Name
  {75c31e25-e253-4732-8daa-996cf182e30f}; !- Thermal Zone

OS:Space,
  {f535f385-d31a-4983-8916-80e1af2988b3}, !- Handle
  sleeping,                               !- Name
  ,                                       !- Space Type Name
  ,                                       !- Default Construction Set Name
  ,                                       !- Default Schedule Set Name
  0,                                      !- Direction of Relative North {deg}
  0,                                      !- X Origin {m}
  -5.02920000000001,                      !- Y Origin {m}
  0,                                      !- Z Origin {m}
  ,                                       !- Building Story Name
  {75c31e25-e253-4732-8daa-996cf182e30f}, !- Thermal Zone Name
  Yes,                                    !- Part of Total Floor Area
  ;                                       !- Design Specification Outdoor Air Object Name

OS:ThermostatSetpoint:DualSetpoint,
  {e11dcc71-a861-4f6d-b759-7f5040bbbbef}, !- Handle
  {079dcd2f-6a33-46d0-b885-2d25ce4a2984}, !- Name
  {5b822488-ab7b-4408-b506-c06affbbbf96}, !- Heating Setpoint Temperature Schedule Name
  {8590eafb-f65f-4916-b222-b5c2496b7f73}; !- Cooling Setpoint Temperature Schedule Name

OS:Schedule:Year,
  {5b822488-ab7b-4408-b506-c06affbbbf96}, !- Handle
  HeatingSetPoint,                        !- Name
  {4408f807-061b-4d88-9e8c-e9af6a4c4ac5}; !- Schedule Type Limits Name

OS:ScheduleTypeLimits,
  {4408f807-061b-4d88-9e8c-e9af6a4c4ac5}, !- Handle
  Temperature,                            !- Name
  -60,                                    !- Lower Limit Value {BasedOnField A4}
  200,                                    !- Upper Limit Value {BasedOnField A4}
  Continuous,                             !- Numeric Type
  Temperature;                            !- Unit Type

OS:Schedule:Year,
  {8590eafb-f65f-4916-b222-b5c2496b7f73}, !- Handle
  CoolingSetPoint,                        !- Name
  {4408f807-061b-4d88-9e8c-e9af6a4c4ac5}; !- Schedule Type Limits Name

OS:GasEquipment:Definition,
  {bd32bc2f-3ffd-4d29-bda8-888dadb8352e}, !- Handle
  Cooking Range Definition,               !- Name
  EquipmentLevel,                         !- Design Level Calculation Method
  0,                                      !- Design Level {W}
  ,                                       !- Watts per Space Floor Area {W/m2}
  ,                                       !- Watts per Person {W/Person}
  0.2,                                    !- Fraction Latent
  0.18,                                   !- Fraction Radiant
  0.5,                                    !- Fraction Lost
  0;                                      !- Carbon Dioxide Generation Rate {m3/s-W}

OS:GasEquipment,
  {908059e3-50f5-4c58-b64c-23291f332eda}, !- Handle
  Cooking Range,                          !- Name
  {bd32bc2f-3ffd-4d29-bda8-888dadb8352e}, !- Gas Equipment Definition Name
  {2a30f50d-a220-4894-a738-605bcd485d64}, !- Space or SpaceType Name
  {4abf4ca8-0849-4350-96e0-c3bc194834c5}, !- Schedule Name
  ,                                       !- Multiplier
  Appl;                                   !- End-Use Subcategory

OS:ThermalZone,
  {630954ea-c677-4f24-8fae-9a6e0ea4b3e9}, !- Handle
  crawlspace Thermal Zone,                !- Name
  1,                                      !- Multiplier
  1.2192,                                 !- Ceiling Height {m}
  246.696371064,                          !- Volume {m3}
  ,                                       !- Floor Area {m2}
  ,                                       !- Zone Inside Convection Algorithm
  ,                                       !- Zone Outside Convection Algorithm
  ,                                       !- Zone Conditioning Equipment List Name
  {6a0bd69c-dc95-4530-b785-a3808cc4f27f}, !- Zone Air Inlet Port List
  {33b5c052-9ee9-4b70-b134-d0c282fbd23f}, !- Zone Air Exhaust Port List
  {37e3db01-84d0-4a6b-a29a-c8dd48eb280e}, !- Zone Air Node Name
  ,                                       !- Zone Return Air Node Name
  ,                                       !- Primary Daylighting Control Name
  ,                                       !- Fraction of Zone Controlled by Primary Daylighting Control
  ,                                       !- Secondary Daylighting Control Name
  ,                                       !- Fraction of Zone Controlled by Secondary Daylighting Control
  ,                                       !- Illuminance Map Name
  {1c0b1619-03af-4521-9bca-002045a96933}, !- Group Rendering Name
  ,                                       !- Thermostat Name
  No;                                     !- Use Ideal Air Loads

OS:Node,
  {cfa8f656-e770-4d9f-8148-3f19b167fe72}, !- Handle
  {b5681146-305b-42d1-b616-b5949044ff07}, !- Name
  {37e3db01-84d0-4a6b-a29a-c8dd48eb280e}, !- Inlet Port
  ;                                       !- Outlet Port

OS:Connection,
  {37e3db01-84d0-4a6b-a29a-c8dd48eb280e}, !- Handle
  {dc5f607e-28c1-48f1-bde4-6a5a3195981d}, !- Name
  {630954ea-c677-4f24-8fae-9a6e0ea4b3e9}, !- Source Object
  11,                                     !- Outlet Port
  {cfa8f656-e770-4d9f-8148-3f19b167fe72}, !- Target Object
  2;                                      !- Inlet Port

OS:PortList,
  {6a0bd69c-dc95-4530-b785-a3808cc4f27f}, !- Handle
  {57335376-972a-458c-9918-54466a436225}, !- Name
  {630954ea-c677-4f24-8fae-9a6e0ea4b3e9}; !- HVAC Component

OS:PortList,
  {33b5c052-9ee9-4b70-b134-d0c282fbd23f}, !- Handle
  {3c32d72f-7ab2-4768-84d0-72080b981462}, !- Name
  {630954ea-c677-4f24-8fae-9a6e0ea4b3e9}; !- HVAC Component

OS:Sizing:Zone,
  {35850232-a25d-4e95-a166-7ba9cf7ce3dd}, !- Handle
  {630954ea-c677-4f24-8fae-9a6e0ea4b3e9}, !- Zone or ZoneList Name
  14,                                     !- Zone Cooling Design Supply Air Temperature {C}
  40,                                     !- Zone Heating Design Supply Air Temperature {C}
  0.0085,                                 !- Zone Cooling Design Supply Air Humidity Ratio {kg-H2O/kg-air}
  0.008,                                  !- Zone Heating Design Supply Air Humidity Ratio {kg-H2O/kg-air}
  ,                                       !- Zone Heating Sizing Factor
  ,                                       !- Zone Cooling Sizing Factor
  DesignDay,                              !- Cooling Design Air Flow Method
  ,                                       !- Cooling Design Air Flow Rate {m3/s}
  ,                                       !- Cooling Minimum Air Flow per Zone Floor Area {m3/s-m2}
  ,                                       !- Cooling Minimum Air Flow {m3/s}
  ,                                       !- Cooling Minimum Air Flow Fraction
  DesignDay,                              !- Heating Design Air Flow Method
  ,                                       !- Heating Design Air Flow Rate {m3/s}
  ,                                       !- Heating Maximum Air Flow per Zone Floor Area {m3/s-m2}
  ,                                       !- Heating Maximum Air Flow {m3/s}
  ,                                       !- Heating Maximum Air Flow Fraction
  ,                                       !- Design Zone Air Distribution Effectiveness in Cooling Mode
  ;                                       !- Design Zone Air Distribution Effectiveness in Heating Mode

OS:ZoneHVAC:EquipmentList,
  {5b247b86-28bf-453a-aba2-e33263dc022f}, !- Handle
  {c752ca92-a380-4d98-b25e-4d4775bb3efd}, !- Name
  {630954ea-c677-4f24-8fae-9a6e0ea4b3e9}; !- Thermal Zone

OS:Space,
  {2a30f50d-a220-4894-a738-605bcd485d64}, !- Handle
  crawlspace,                             !- Name
  ,                                       !- Space Type Name
  ,                                       !- Default Construction Set Name
  ,                                       !- Default Schedule Set Name
  0,                                      !- Direction of Relative North {deg}
  -10.0584,                               !- X Origin {m}
  -5.0292,                                !- Y Origin {m}
  -1.2192,                                !- Z Origin {m}
  ,                                       !- Building Story Name
  {630954ea-c677-4f24-8fae-9a6e0ea4b3e9}, !- Thermal Zone Name
  ,                                       !- Part of Total Floor Area
  ;                                       !- Design Specification Outdoor Air Object Name

OS:Schedule:Year,
  {4abf4ca8-0849-4350-96e0-c3bc194834c5}, !- Handle
  CookingRange,                           !- Name
  {e114fe33-d0d5-4ab2-b2d2-38bcd5e63014}; !- Schedule Type Limits Name

OS:ScheduleTypeLimits,
  {e114fe33-d0d5-4ab2-b2d2-38bcd5e63014}, !- Handle
  Fraction,                               !- Name
  0,                                      !- Lower Limit Value {BasedOnField A4}
  1,                                      !- Upper Limit Value {BasedOnField A4}
  Continuous;                             !- Numeric Type

OS:OtherEquipment:Definition,
  {9ecbc7a6-874a-4e51-9798-e3a11818cb7f}, !- Handle
  ReturnSensibleLeakageEquip Definition,  !- Name
  EquipmentLevel,                         !- Design Level Calculation Method
  0,                                      !- Design Level {W}
  ,                                       !- Watts per Space Floor Area {W/m2}
  ,                                       !- Watts per Person {W/Person}
  0,                                      !- Fraction Latent
  0,                                      !- Fraction Radiant
  0;                                      !- Fraction Lost

OS:OtherEquipment,
  {3e823389-479c-41dc-9359-71be4a984a92}, !- Handle
  ReturnSensibleLeakageEquip,             !- Name
  {9ecbc7a6-874a-4e51-9798-e3a11818cb7f}, !- Other Equipment Definition Name
  {e7d9a65e-2139-4e43-8606-88b142bc578f}, !- Space or SpaceType Name
  {c3bd938c-2b0d-4122-bb14-8526d0a5b2e6}; !- Schedule Name

OS:ThermalZone,
  {2e94c390-4b84-48e3-a53f-50ea0a6948ef}, !- Handle
  RA Duct Zone Thermal Zone,              !- Name
  ,                                       !- Multiplier
  0,                                      !- Ceiling Height {m}
  0,                                      !- Volume {m3}
  ,                                       !- Floor Area {m2}
  ,                                       !- Zone Inside Convection Algorithm
  ,                                       !- Zone Outside Convection Algorithm
  ,                                       !- Zone Conditioning Equipment List Name
  {75ffc24b-72d7-45fc-b23d-93c4758dc46f}, !- Zone Air Inlet Port List
  {9e1cd87a-eac8-4fea-9f52-4aa99b7f16d4}, !- Zone Air Exhaust Port List
  {95e630cf-30b2-4e81-98f6-801ddf4260bf}, !- Zone Air Node Name
  ,                                       !- Zone Return Air Node Name
  ,                                       !- Primary Daylighting Control Name
  ,                                       !- Fraction of Zone Controlled by Primary Daylighting Control
  ,                                       !- Secondary Daylighting Control Name
  ,                                       !- Fraction of Zone Controlled by Secondary Daylighting Control
  ,                                       !- Illuminance Map Name
  {be2e7880-93fd-4cb8-a906-9f11ac7e9f21}, !- Group Rendering Name
  ,                                       !- Thermostat Name
  No;                                     !- Use Ideal Air Loads

OS:Node,
  {abc7e4e7-e7a9-4ccb-87d8-93bf9484c035}, !- Handle
  {cfa97eec-4291-429b-8b93-c8266e6568e1}, !- Name
  {95e630cf-30b2-4e81-98f6-801ddf4260bf}, !- Inlet Port
  ;                                       !- Outlet Port

OS:Connection,
  {95e630cf-30b2-4e81-98f6-801ddf4260bf}, !- Handle
  {d2d6d03a-02b8-48b3-b616-bcfb187e9fc0}, !- Name
  {2e94c390-4b84-48e3-a53f-50ea0a6948ef}, !- Source Object
  11,                                     !- Outlet Port
  {abc7e4e7-e7a9-4ccb-87d8-93bf9484c035}, !- Target Object
  2;                                      !- Inlet Port

OS:PortList,
  {75ffc24b-72d7-45fc-b23d-93c4758dc46f}, !- Handle
  {a5574416-ac30-4faf-b4de-7add74b7e0de}, !- Name
  {2e94c390-4b84-48e3-a53f-50ea0a6948ef}; !- HVAC Component

OS:PortList,
  {9e1cd87a-eac8-4fea-9f52-4aa99b7f16d4}, !- Handle
  {fc067012-7c2e-4721-9ef3-4a03c6e9f7c7}, !- Name
  {2e94c390-4b84-48e3-a53f-50ea0a6948ef}; !- HVAC Component

OS:Sizing:Zone,
  {3f0a91c5-66df-4c98-b8c2-f75bb45025dd}, !- Handle
  {2e94c390-4b84-48e3-a53f-50ea0a6948ef}, !- Zone or ZoneList Name
  14,                                     !- Zone Cooling Design Supply Air Temperature {C}
  40,                                     !- Zone Heating Design Supply Air Temperature {C}
  0.0085,                                 !- Zone Cooling Design Supply Air Humidity Ratio {kg-H2O/kg-air}
  0.008,                                  !- Zone Heating Design Supply Air Humidity Ratio {kg-H2O/kg-air}
  ,                                       !- Zone Heating Sizing Factor
  ,                                       !- Zone Cooling Sizing Factor
  DesignDay,                              !- Cooling Design Air Flow Method
  ,                                       !- Cooling Design Air Flow Rate {m3/s}
  ,                                       !- Cooling Minimum Air Flow per Zone Floor Area {m3/s-m2}
  ,                                       !- Cooling Minimum Air Flow {m3/s}
  ,                                       !- Cooling Minimum Air Flow Fraction
  DesignDay,                              !- Heating Design Air Flow Method
  ,                                       !- Heating Design Air Flow Rate {m3/s}
  ,                                       !- Heating Maximum Air Flow per Zone Floor Area {m3/s-m2}
  ,                                       !- Heating Maximum Air Flow {m3/s}
  ,                                       !- Heating Maximum Air Flow Fraction
  ,                                       !- Design Zone Air Distribution Effectiveness in Cooling Mode
  ;                                       !- Design Zone Air Distribution Effectiveness in Heating Mode

OS:ZoneHVAC:EquipmentList,
  {84fbf64e-bf9c-4a74-8a84-58fc9f2c375f}, !- Handle
  {159c507d-56d4-41a1-8d72-c4d19960edd2}, !- Name
  {2e94c390-4b84-48e3-a53f-50ea0a6948ef}; !- Thermal Zone

OS:Space,
  {e7d9a65e-2139-4e43-8606-88b142bc578f}, !- Handle
  RA Duct Zone,                           !- Name
  ,                                       !- Space Type Name
  ,                                       !- Default Construction Set Name
  ,                                       !- Default Schedule Set Name
  0,                                      !- Direction of Relative North {deg}
  0,                                      !- X Origin {m}
  0,                                      !- Y Origin {m}
  0,                                      !- Z Origin {m}
  ,                                       !- Building Story Name
  {2e94c390-4b84-48e3-a53f-50ea0a6948ef}; !- Thermal Zone Name

OS:Schedule:Constant,
  {c3bd938c-2b0d-4122-bb14-8526d0a5b2e6}, !- Handle
  {e424ea41-8b86-4c0d-ad60-6185ce298512}, !- Name
  {e114fe33-d0d5-4ab2-b2d2-38bcd5e63014}, !- Schedule Type Limits Name
  1;                                      !- Value

OS:Schedule:Compact,
  {7245f68b-a4c4-4864-99dc-12bd3e98506c}, !- Handle
  HeatingSeasonSchedule,                  !- Name
  {72277e84-82d2-4819-93b3-8d3ebe6a3da8}, !- Schedule Type Limits Name
  Through: Jan 31,                        !- Field 1
  For: AllDays,                           !- Field 2
  Until: 24:00,                           !- Field 3
  1,                                      !- Field 4
  Through: Feb 28,                        !- Field 5
  For: AllDays,                           !- Field 6
  Until: 24:00,                           !- Field 7
  1,                                      !- Field 8
  Through: Mar 31,                        !- Field 9
  For: AllDays,                           !- Field 10
  Until: 24:00,                           !- Field 11
  1,                                      !- Field 12
  Through: Apr 30,                        !- Field 13
  For: AllDays,                           !- Field 14
  Until: 24:00,                           !- Field 15
  1,                                      !- Field 16
  Through: May 31,                        !- Field 17
  For: AllDays,                           !- Field 18
  Until: 24:00,                           !- Field 19
  1,                                      !- Field 20
  Through: Jun 30,                        !- Field 21
  For: AllDays,                           !- Field 22
  Until: 24:00,                           !- Field 23
  1,                                      !- Field 24
  Through: Jul 31,                        !- Field 25
  For: AllDays,                           !- Field 26
  Until: 24:00,                           !- Field 27
  1,                                      !- Field 28
  Through: Aug 31,                        !- Field 29
  For: AllDays,                           !- Field 30
  Until: 24:00,                           !- Field 31
  0,                                      !- Field 32
  Through: Sep 30,                        !- Field 33
  For: AllDays,                           !- Field 34
  Until: 24:00,                           !- Field 35
  1,                                      !- Field 36
  Through: Oct 31,                        !- Field 37
  For: AllDays,                           !- Field 38
  Until: 24:00,                           !- Field 39
  1,                                      !- Field 40
  Through: Nov 30,                        !- Field 41
  For: AllDays,                           !- Field 42
  Until: 24:00,                           !- Field 43
  1,                                      !- Field 44
  Through: Dec 31,                        !- Field 45
  For: AllDays,                           !- Field 46
  Until: 24:00,                           !- Field 47
  1;                                      !- Field 48

OS:ScheduleTypeLimits,
  {72277e84-82d2-4819-93b3-8d3ebe6a3da8}, !- Handle
  On/Off,                                 !- Name
  0,                                      !- Lower Limit Value {BasedOnField A4}
  1,                                      !- Upper Limit Value {BasedOnField A4}
  Discrete,                               !- Numeric Type
  Availability;                           !- Unit Type

OS:Curve:Biquadratic,
  {f9c46660-38e4-471a-b3ab-c5de92d6bf25}, !- Handle
  Cool-Cap-fT,                            !- Name
  0.6405,                                 !- Coefficient1 Constant
  0.01568,                                !- Coefficient2 x
  0.0004531,                              !- Coefficient3 x**2
  0.001615,                               !- Coefficient4 y
  -0.0001825,                             !- Coefficient5 y**2
  6.614e-005,                             !- Coefficient6 x*y
  0,                                      !- Minimum Value of x {BasedOnField A2}
  100,                                    !- Maximum Value of x {BasedOnField A2}
  0,                                      !- Minimum Value of y {BasedOnField A3}
  100;                                    !- Maximum Value of y {BasedOnField A3}

OS:Schedule:Day,
  {b081f4bf-9257-4e46-add0-7d45ccf7f44e}, !- Handle
  RefrigeratorDay1,                       !- Name
  {e114fe33-d0d5-4ab2-b2d2-38bcd5e63014}, !- Schedule Type Limits Name
  ,                                       !- Interpolate to Timestep
  1,                                      !- Hour 1
  0,                                      !- Minute 1
  0.61075300215352,                       !- Value Until Time 1
  2,                                      !- Hour 2
  0,                                      !- Minute 2
  0.597542549893661,                      !- Value Until Time 2
  3,                                      !- Hour 3
  0,                                      !- Minute 3
  0.584485707543799,                      !- Value Until Time 3
  4,                                      !- Hour 4
  0,                                      !- Minute 4
  0.567127787713983,                      !- Value Until Time 4
  5,                                      !- Hour 5
  0,                                      !- Minute 5
  0.558372022844076,                      !- Value Until Time 5
  6,                                      !- Hour 6
  0,                                      !- Minute 6
  0.558372022844076,                      !- Value Until Time 6
  7,                                      !- Hour 7
  0,                                      !- Minute 7
  0.580184630063845,                      !- Value Until Time 7
  8,                                      !- Hour 8
  0,                                      !- Minute 8
  0.61075300215352,                       !- Value Until Time 8
  9,                                      !- Hour 9
  0,                                      !- Minute 9
  0.623809844503382,                      !- Value Until Time 9
  10,                                     !- Hour 10
  0,                                      !- Minute 10
  0.632565609373289,                      !- Value Until Time 10
  11,                                     !- Hour 11
  0,                                      !- Minute 11
  0.61075300215352,                       !- Value Until Time 11
  12,                                     !- Hour 12
  0,                                      !- Minute 12
  0.61075300215352,                       !- Value Until Time 12
  13,                                     !- Hour 13
  0,                                      !- Minute 13
  0.641167764333198,                      !- Value Until Time 13
  14,                                     !- Hour 14
  0,                                      !- Minute 14
  0.641167764333198,                      !- Value Until Time 14
  15,                                     !- Hour 15
  0,                                      !- Minute 15
  0.632565609373289,                      !- Value Until Time 15
  16,                                     !- Hour 16
  0,                                      !- Minute 16
  0.641167764333198,                      !- Value Until Time 16
  17,                                     !- Hour 17
  0,                                      !- Minute 17
  0.676190823812826,                      !- Value Until Time 17
  18,                                     !- Hour 18
  0,                                      !- Minute 18
  0.741628645472132,                      !- Value Until Time 18
  19,                                     !- Hour 19
  0,                                      !- Minute 19
  0.763441252691901,                      !- Value Until Time 19
  20,                                     !- Hour 20
  0,                                      !- Minute 20
  0.741628645472132,                      !- Value Until Time 20
  21,                                     !- Hour 21
  0,                                      !- Minute 21
  0.719816038252363,                      !- Value Until Time 21
  22,                                     !- Hour 22
  0,                                      !- Minute 22
  0.706605585992504,                      !- Value Until Time 22
  23,                                     !- Hour 23
  0,                                      !- Minute 23
  0.676190823812826,                      !- Value Until Time 23
  24,                                     !- Hour 24
  0,                                      !- Minute 24
  0.632565609373289;                      !- Value Until Time 24

OS:Material:NoMass,
  {ac510b78-07fd-4c37-8ee9-88ad760aab27}, !- Handle
  Adiabatic,                              !- Name
  Rough,                                  !- Roughness
  176.1;                                  !- Thermal Resistance {m2-K/W}

OS:Construction,
  {285dffc6-a8d2-4b2f-ba38-c901a61f61dc}, !- Handle
  UnfinUninsUnfinFloor,                   !- Name
  {6fcdd86a-80eb-4d85-85e5-1c5282a42a3e}, !- Surface Rendering Name
  {c80ca9a6-49be-4c84-b502-8c922fee2669}, !- Layer 1
  {71459133-33bf-4155-a064-2c7366111d4e}; !- Layer 2

OS:Material,
  {c80ca9a6-49be-4c84-b502-8c922fee2669}, !- Handle
  StudandAirFloor,                        !- Name
  Rough,                                  !- Roughness
  0.0889,                                 !- Thickness {m}
  0.448792750636364,                      !- Conductivity {W/m-K}
  67.4962953045903,                       !- Density {kg/m3}