!-Generator IDFEditor 1.44
!-Option SortedOrder UseSpecialFormat ViewInIPunits

!-NOTE: All comments with '!-' are ignored by the IDFEditor and are generated automatically.
!-      Use '!' comments if they need to be retained when using the IDFEditor.


!-   ===========  ALL OBJECTS IN CLASS: VERSION ===========

Version,8.0;

!-   ===========  ALL OBJECTS IN CLASS: SIMULATIONCONTROL ===========


SimulationControl,
    Yes,                     !- Do Zone Sizing Calculation
    No,                      !- Do System Sizing Calculation
    Yes,                     !- Do Plant Sizing Calculation
    No,                      !- Run Simulation for Sizing Periods
    Yes;                     !- Run Simulation for Weather File Run Periods


!-   ===========  ALL OBJECTS IN CLASS: BUILDING ===========

Building,
    Denver-Stapleton CO 2178 sqft ,  !- Name
    180,                     !- North Axis {deg}
    Urban,                   !- Terrain
    0.05,                    !- Loads Convergence Tolerance Value
    0.05,                    !- Temperature Convergence Tolerance Value {deltaC}
    FullExterior,            !- Solar Distribution
    50,                      !- Maximum Number of Warmup Days
    ;                        !- Minimum Number of Warmup Days


!-   ===========  ALL OBJECTS IN CLASS: SHADOWCALCULATION ===========

ShadowCalculation,
    AverageOverDaysInFrequency,  !- Calculation Method
    20,                      !- Calculation Frequency
    200;                     !- Maximum Figures in Shadow Overlap Calculations


!-   ===========  ALL OBJECTS IN CLASS: SURFACECONVECTIONALGORITHM:INSIDE ===========

SurfaceConvectionAlgorithm:Inside,TARP;

!-   ===========  ALL OBJECTS IN CLASS: SURFACECONVECTIONALGORITHM:OUTSIDE ===========

SurfaceConvectionAlgorithm:Outside,DOE-2;

!-   ===========  ALL OBJECTS IN CLASS: HEATBALANCEALGORITHM ===========

HeatBalanceAlgorithm,ConductionTransferFunction,200;

!-   ===========  ALL OBJECTS IN CLASS: ZONECAPACITANCEMULTIPLIER:RESEARCHSPECIAL ===========

ZoneCapacitanceMultiplier:ResearchSpecial,1,15,1,;

!-   ===========  ALL OBJECTS IN CLASS: TIMESTEP ===========

Timestep,1;

!-   ===========  ALL OBJECTS IN CLASS: CONVERGENCELIMITS ===========


ConvergenceLimits,
    10,                      !- Minimum System Timestep {minutes}
    20;                      !- Maximum HVAC Iterations


!-   ===========  ALL OBJECTS IN CLASS: PROGRAMCONTROL ===========

ProgramControl,
    1;                       !- Number of Threads Allowed


!-   ===========  ALL OBJECTS IN CLASS: SITE:LOCATION ===========

Site:Location,
    Denver-Stapleton CO,     !- Name
    39.76,                   !- Latitude {deg}
    -104.86,                 !- Longitude {deg}
    -7,                      !- Time Zone {hr}
    1610.9999784000001;      !- Elevation {m}


!-   ===========  ALL OBJECTS IN CLASS: SIZINGPERIOD:WEATHERFILEDAYS ===========

SizingPeriod:WeatherFileDays,
    Plant DD,                !- Name
    1,                       !- Begin Month
    1,                       !- Begin Day of Month
    1,                       !- End Month
    1,                       !- End Day of Month
    Sunday,                  !- Day of Week for Start Day
    Yes,                     !- Use Weather File Daylight Saving Period
    No;                      !- Use Weather File Rain and Snow Indicators


!-   ===========  ALL OBJECTS IN CLASS: RUNPERIOD ===========

RunPeriod,
    Denver-Stapleton CO 2178 sqft,  !- Name
    1,                       !- Begin Month
    1,                       !- Begin Day of Month
    12,                      !- End Month
    31,                      !- End Day of Month
    Sunday,                  !- Day of Week for Start Day
    No,                      !- Use Weather File Holidays and Special Days
    Yes,                     !- Use Weather File Daylight Saving Period
    No,                      !- Apply Weekend Holiday Rule
    Yes,                     !- Use Weather File Rain Indicators
    Yes;                     !- Use Weather File Snow Indicators


!-   ===========  ALL OBJECTS IN CLASS: RUNPERIODCONTROL:SPECIALDAYS ===========

RunPeriodControl:SpecialDays,
    MayVacation,             !- Name
    5/26,                    !- Start Date
    3,                       !- Duration {days}
    CustomDay1;              !- Special Day Type

RunPeriodControl:SpecialDays,
    AugVacation,             !- Name
    8/12,                    !- Start Date
    7,                       !- Duration {days}
    CustomDay1;              !- Special Day Type

RunPeriodControl:SpecialDays,
    DecVacation,             !- Name
    12/22,                   !- Start Date
    4,                       !- Duration {days}
    CustomDay1;              !- Special Day Type


!-   ===========  ALL OBJECTS IN CLASS: RUNPERIODCONTROL:DAYLIGHTSAVINGTIME ===========

RunPeriodControl:DaylightSavingTime,
    April 2,                 !- Start Date
    October 28;              !- End Date


!-   ===========  ALL OBJECTS IN CLASS: SITE:WEATHERSTATION ===========

Site:WeatherStation,
    9.99744,                 !- Wind Sensor Height Above Ground {m}
    0.15,                    !- Wind Speed Profile Exponent
    269.99184,               !- Wind Speed Profile Boundary Layer Thickness {m}
    1.5;                     !- Air Temperature Sensor Height Above Ground {m}


!-   ===========  ALL OBJECTS IN CLASS: SITE:HEIGHTVARIATION ===========

Site:HeightVariation,
    0.25,                    !- Wind Speed Profile Exponent
    358.44480000000004,      !- Wind Speed Profile Boundary Layer Thickness {m}
    0.0065;                  !- Air Temperature Gradient Coefficient {K/m}


!-   ===========  ALL OBJECTS IN CLASS: SITE:GROUNDTEMPERATURE:BUILDINGSURFACE ===========

Site:GroundTemperature:BuildingSurface,5.314057010772426,3.450009974519364,3.300730402985847,4.18531596778182,7.736434080611395,11.271009578807769,14.335297633011521,16.276448750720803,16.441360200155405,14.862560028872956,11.876413119140194,8.450264000649383;

!-   ===========  ALL OBJECTS IN CLASS: SITE:GROUNDTEMPERATURE:DEEP ===========

Site:GroundTemperature:Deep,9.705555555555554,9.705555555555554,9.705555555555554,9.705555555555554,9.705555555555554,9.705555555555554,9.705555555555554,9.705555555555554,9.705555555555554,9.705555555555554,9.705555555555554,9.705555555555554;

!-   ===========  ALL OBJECTS IN CLASS: SITE:WATERMAINSTEMPERATURE ===========


Site:WaterMainsTemperature,
    Correlation,             !- Calculation Method
    ,                        !- Temperature Schedule Name
    9.705555555555554,       !- Annual Average Outdoor Air Temperature {C}
    24.372222222222224;      !- Maximum Difference In Monthly Average Outdoor Air Temperatures {deltaC}


!-   ===========  ALL OBJECTS IN CLASS: SCHEDULETYPELIMITS ===========

ScheduleTypeLimits,
    Multiplier,              !- Name
    ,                        !- Lower Limit Value
    ,                        !- Upper Limit Value
    Continuous;              !- Numeric Type

ScheduleTypeLimits,
    Fraction,                !- Name
    0,                       !- Lower Limit Value
    1,                       !- Upper Limit Value
    Continuous;              !- Numeric Type

ScheduleTypeLimits,
    On/Off,                  !- Name
    0,                       !- Lower Limit Value
    1,                       !- Upper Limit Value
    Discrete;                !- Numeric Type

ScheduleTypeLimits,
    Temperature,             !- Name
    -60,                     !- Lower Limit Value
    200,                     !- Upper Limit Value
    Continuous;              !- Numeric Type

ScheduleTypeLimits,
    Month,                   !- Name
    1,                       !- Lower Limit Value
    12,                      !- Upper Limit Value
    Discrete;                !- Numeric Type


!-   ===========  ALL OBJECTS IN CLASS: SCHEDULE:DAY:HOURLY ===========

Schedule:Day:Hourly,
    BathExhaustDay,          !- Name
    FRACTION,                !- Schedule Type Limits Name
    0,                       !- Hour 1
    0,                       !- Hour 2
    0,                       !- Hour 3
    0,                       !- Hour 4
    0,                       !- Hour 5
    0,                       !- Hour 6
    1,                       !- Hour 7
    0,                       !- Hour 8
    0,                       !- Hour 9
    0,                       !- Hour 10
    0,                       !- Hour 11
    0,                       !- Hour 12
    0,                       !- Hour 13
    0,                       !- Hour 14
    0,                       !- Hour 15
    0,                       !- Hour 16
    0,                       !- Hour 17
    0,                       !- Hour 18
    0,                       !- Hour 19
    0,                       !- Hour 20
    0,                       !- Hour 21
    0,                       !- Hour 22
    0,                       !- Hour 23
    0;                       !- Hour 24

Schedule:Day:Hourly,
    BathsWeekday,            !- Name
    FRACTION,                !- Schedule Type Limits Name
    0.0549341075342271,      !- Hour 1
    0.0274670537671135,      !- Hour 2
    0.0274670537671135,      !- Hour 3
    0.0274670537671135,      !- Hour 4
    0.0549341075342271,      !- Hour 5
    0.1373352688355677,      !- Hour 6
    0.3296758033757437,      !- Hour 7
    0.4120769646770843,      !- Hour 8
    0.4670110722113113,      !- Hour 9
    0.4120769646770843,      !- Hour 10
    0.3296758033757437,      !- Hour 11
    0.2472034839040219,      !- Hour 12
    0.2197364301369084,      !- Hour 13
    0.1648023226026813,      !- Hour 14
    0.1648023226026813,      !- Hour 15
    0.1648023226026813,      !- Hour 16
    0.2747416958415165,      !- Hour 17
    0.3296758033757437,      !- Hour 18
    0.5494833916830331,      !- Hour 19
    0.7142857142857144,      !- Hour 20
    0.7142857142857144,      !- Hour 21
    0.5494833916830331,      !- Hour 22
    0.4670110722113113,      !- Hour 23
    0.2747416958415165;      !- Hour 24

Schedule:Day:Hourly,
    BathsWeekend,            !- Name
    FRACTION,                !- Schedule Type Limits Name
    0.0769077505479179,      !- Hour 1
    0.038453875273959,       !- Hour 2
    0.038453875273959,       !- Hour 3
    0.038453875273959,       !- Hour 4
    0.0769077505479179,      !- Hour 5
    0.1922693763697948,      !- Hour 6
    0.4615461247260411,      !- Hour 7
    0.576907750547918,       !- Hour 8
    0.6538155010958359,      !- Hour 9
    0.576907750547918,       !- Hour 10
    0.4615461247260411,      !- Hour 11
    0.3460848774656306,      !- Hour 12
    0.3076310021916717,      !- Hour 13
    0.2307232516437538,      !- Hour 14
    0.2307232516437538,      !- Hour 15
    0.2307232516437538,      !- Hour 16
    0.3846383741781232,      !- Hour 17
    0.4615461247260411,      !- Hour 18
    0.7692767483562464,      !- Hour 19
    1,                       !- Hour 20
    1,                       !- Hour 21
    0.7692767483562464,      !- Hour 22
    0.6538155010958359,      !- Hour 23
    0.3846383741781232;      !- Hour 24

Schedule:Day:Hourly,
    BathsVacationDay,        !- Name
    FRACTION,                !- Schedule Type Limits Name
    0,                       !- Hour 1
    0,                       !- Hour 2
    0,                       !- Hour 3
    0,                       !- Hour 4
    0,                       !- Hour 5
    0,                       !- Hour 6
    0,                       !- Hour 7
    0,                       !- Hour 8
    0,                       !- Hour 9
    0,                       !- Hour 10
    0,                       !- Hour 11
    0,                       !- Hour 12
    0,                       !- Hour 13
    0,                       !- Hour 14
    0,                       !- Hour 15
    0,                       !- Hour 16
    0,                       !- Hour 17
    0,                       !- Hour 18
    0,                       !- Hour 19
    0,                       !- Hour 20
    0,                       !- Hour 21
    0,                       !- Hour 22
    0,                       !- Hour 23
    0;                       !- Hour 24

Schedule:Day:Hourly,
    CeilingFanWeekday,       !- Name
    ON/OFF,                  !- Schedule Type Limits Name
    1,                       !- Hour 1
    1,                       !- Hour 2
    1,                       !- Hour 3
    1,                       !- Hour 4
    1,                       !- Hour 5
    1,                       !- Hour 6
    1,                       !- Hour 7
    1,                       !- Hour 8
    1,                       !- Hour 9
    1,                       !- Hour 10
    1,                       !- Hour 11
    1,                       !- Hour 12
    1,                       !- Hour 13
    1,                       !- Hour 14
    1,                       !- Hour 15
    1,                       !- Hour 16
    1,                       !- Hour 17
    1,                       !- Hour 18
    1,                       !- Hour 19
    1,                       !- Hour 20
    1,                       !- Hour 21
    1,                       !- Hour 22
    1,                       !- Hour 23
    1;                       !- Hour 24

Schedule:Day:Hourly,
    CeilingFanWeekend,       !- Name
    ON/OFF,                  !- Schedule Type Limits Name
    1,                       !- Hour 1
    1,                       !- Hour 2
    1,                       !- Hour 3
    1,                       !- Hour 4
    1,                       !- Hour 5
    1,                       !- Hour 6
    1,                       !- Hour 7
    1,                       !- Hour 8
    1,                       !- Hour 9
    1,                       !- Hour 10
    1,                       !- Hour 11
    1,                       !- Hour 12
    1,                       !- Hour 13
    1,                       !- Hour 14
    1,                       !- Hour 15
    1,                       !- Hour 16
    1,                       !- Hour 17
    1,                       !- Hour 18
    1,                       !- Hour 19
    1,                       !- Hour 20
    1,                       !- Hour 21
    1,                       !- Hour 22
    1,                       !- Hour 23
    1;                       !- Hour 24

Schedule:Day:Hourly,
    ClothesDryerWeekday,     !- Name
    FRACTION,                !- Schedule Type Limits Name
    0.0996818663838812,      !- Hour 1
    0.0598091198303287,      !- Hour 2
    0.0398727465535525,      !- Hour 3
    0.0199363732767762,      !- Hour 4
    0.0398727465535525,      !- Hour 5
    0.0598091198303287,      !- Hour 6
    0.15949098621421,        !- Hour 7
    0.31898197242842,        !- Hour 8
    0.4864273702025558,      !- Hour 9
    0.6857911029703183,      !- Hour 10
    0.7854729693541994,      !- Hour 11
    0.8173913043478261,      !- Hour 12
    0.745600222800647,       !- Hour 13
    0.6778366914103924,      !- Hour 14
    0.6100731600201377,      !- Hour 15
    0.5781548250265112,      !- Hour 16
    0.558218451749735,       !- Hour 17
    0.5462364900328845,      !- Hour 18
    0.5183457051961824,      !- Hour 19
    0.5103912936362565,      !- Hour 20
    0.5263001167561082,      !- Hour 21
    0.5462364900328845,      !- Hour 22
    0.4386002120890774,      !- Hour 23
    0.239236479321315;       !- Hour 24

Schedule:Day:Hourly,
    ClothesDryerWeekend,     !- Name
    FRACTION,                !- Schedule Type Limits Name
    0.1219512195121951,      !- Hour 1
    0.0731707317073171,      !- Hour 2
    0.048780487804878,       !- Hour 3
    0.024390243902439,       !- Hour 4
    0.048780487804878,       !- Hour 5
    0.0731707317073171,      !- Hour 6
    0.1951219512195122,      !- Hour 7
    0.3902439024390243,      !- Hour 8
    0.5950973146095097,      !- Hour 9
    0.8389997536339,         !- Hour 10
    0.9609509731460949,      !- Hour 11
    1,                       !- Hour 12
    0.912170485341217,       !- Hour 13
    0.8292682926829268,      !- Hour 14
    0.7463661000246365,      !- Hour 15
    0.7073170731707317,      !- Hour 16
    0.6829268292682927,      !- Hour 17
    0.6682680463168268,      !- Hour 18
    0.6341463414634145,      !- Hour 19
    0.6244148805124414,      !- Hour 20
    0.6438778024143876,      !- Hour 21
    0.6682680463168268,      !- Hour 22
    0.5365853658536586,      !- Hour 23
    0.2926829268292683;      !- Hour 24

Schedule:Day:Hourly,
    ClothesDryerVacationDay, !- Name
    FRACTION,                !- Schedule Type Limits Name
    0,                       !- Hour 1
    0,                       !- Hour 2
    0,                       !- Hour 3
    0,                       !- Hour 4
    0,                       !- Hour 5
    0,                       !- Hour 6
    0,                       !- Hour 7
    0,                       !- Hour 8
    0,                       !- Hour 9
    0,                       !- Hour 10
    0,                       !- Hour 11
    0,                       !- Hour 12
    0,                       !- Hour 13
    0,                       !- Hour 14
    0,                       !- Hour 15
    0,                       !- Hour 16
    0,                       !- Hour 17
    0,                       !- Hour 18
    0,                       !- Hour 19
    0,                       !- Hour 20
    0,                       !- Hour 21
    0,                       !- Hour 22
    0,                       !- Hour 23
    0;                       !- Hour 24

Schedule:Day:Hourly,
    ClothesDryerExhaustDay,  !- Name
    FRACTION,                !- Schedule Type Limits Name
    0,                       !- Hour 1
    0,                       !- Hour 2
    0,                       !- Hour 3
    0,                       !- Hour 4
    0,                       !- Hour 5
    0,                       !- Hour 6
    0,                       !- Hour 7
    0,                       !- Hour 8
    0,                       !- Hour 9
    0,                       !- Hour 10
    1,                       !- Hour 11
    0,                       !- Hour 12
    0,                       !- Hour 13
    0,                       !- Hour 14
    0,                       !- Hour 15
    0,                       !- Hour 16
    0,                       !- Hour 17
    0,                       !- Hour 18
    0,                       !- Hour 19
    0,                       !- Hour 20
    0,                       !- Hour 21
    0,                       !- Hour 22
    0,                       !- Hour 23
    0;                       !- Hour 24

Schedule:Day:Hourly,
    ClothesWasherWeekday,    !- Name
    FRACTION,                !- Schedule Type Limits Name
    0.0887931470412735,      !- Hour 1
    0.0710155041111684,      !- Hour 2
    0.0354602182509583,      !- Hour 3
    0.0354602182509583,      !- Hour 4
    0.0710155041111684,      !- Hour 5
    0.1065707899713786,      !- Hour 6
    0.2131415799427572,      !- Hour 7
    0.4619335133549764,      !- Hour 8
    0.6929478038370905,      !- Hour 9
    0.8173913043478263,      !- Hour 10
    0.7996136614177211,      !- Hour 11
    0.7107254467671956,      !- Hour 12
    0.6396148750467754,      !- Hour 13
    0.568599370935607,       !- Hour 14
    0.4974887992151866,      !- Hour 15
    0.4619335133549764,      !- Hour 16
    0.4797111562850815,      !- Hour 17
    0.4619335133549764,      !- Hour 18
    0.4619335133549764,      !- Hour 19
    0.4619335133549764,      !- Hour 20
    0.4619335133549764,      !- Hour 21
    0.4441558704248713,      !- Hour 22
    0.3020297945932826,      !- Hour 23
    0.1599037187616938;      !- Hour 24

Schedule:Day:Hourly,
    ClothesWasherWeekend,    !- Name
    FRACTION,                !- Schedule Type Limits Name
    0.1086299139334729,      !- Hour 1
    0.086880669923238,       !- Hour 2
    0.0433821819027681,      !- Hour 3
    0.0433821819027681,      !- Hour 4
    0.086880669923238,       !- Hour 5
    0.1303791579437079,      !- Hour 6
    0.2607583158874157,      !- Hour 7
    0.565131425913003,       !- Hour 8
    0.8477552919283554,      !- Hour 9
    1,                       !- Hour 10
    0.9782507559897652,      !- Hour 11
    0.8695045359385903,      !- Hour 12
    0.7825075598976508,      !- Hour 13
    0.6956268899744127,      !- Hour 14
    0.608629913933473,       !- Hour 15
    0.565131425913003,       !- Hour 16
    0.586880669923238,       !- Hour 17
    0.565131425913003,       !- Hour 18
    0.565131425913003,       !- Hour 19
    0.565131425913003,       !- Hour 20
    0.565131425913003,       !- Hour 21
    0.5433821819027681,      !- Hour 22
    0.3695045359385903,      !- Hour 23
    0.1956268899744127;      !- Hour 24

Schedule:Day:Hourly,
    ClothesWasherVacationDay,!- Name
    FRACTION,                !- Schedule Type Limits Name
    0,                       !- Hour 1
    0,                       !- Hour 2
    0,                       !- Hour 3
    0,                       !- Hour 4
    0,                       !- Hour 5
    0,                       !- Hour 6
    0,                       !- Hour 7
    0,                       !- Hour 8
    0,                       !- Hour 9
    0,                       !- Hour 10
    0,                       !- Hour 11
    0,                       !- Hour 12
    0,                       !- Hour 13
    0,                       !- Hour 14
    0,                       !- Hour 15
    0,                       !- Hour 16
    0,                       !- Hour 17
    0,                       !- Hour 18
    0,                       !- Hour 19
    0,                       !- Hour 20
    0,                       !- Hour 21
    0,                       !- Hour 22
    0,                       !- Hour 23
    0;                       !- Hour 24

Schedule:Day:Hourly,
    CookingRangeDay1,        !- Name
    FRACTION,                !- Schedule Type Limits Name
    0.04715848452508,        !- Hour 1
    0.04715848452508,        !- Hour 2
    0.0235458911419424,      !- Hour 3
    0.0235458911419424,      !- Hour 4
    0.04715848452508,        !- Hour 5
    0.0707043756670224,      !- Hour 6
    0.1650880469583778,      !- Hour 7
    0.2830176093916755,      !- Hour 8
    0.3065635005336179,      !- Hour 9
    0.3207710779082177,      !- Hour 10
    0.2830176093916755,      !- Hour 11
    0.3301760939167556,      !- Hour 12
    0.3773345784418357,      !- Hour 13
    0.3065635005336179,      !- Hour 14
    0.2924226254002134,      !- Hour 15
    0.3773345784418357,      !- Hour 16
    0.6131937033084311,      !- Hour 17
    1,                       !- Hour 18
    0.7783484525080043,      !- Hour 19
    0.4009471718249733,      !- Hour 20
    0.2358591248665955,      !- Hour 21
    0.1650880469583778,      !- Hour 22
    0.103721985058698,       !- Hour 23
    0.0707043756670224;      !- Hour 24

Schedule:Day:Hourly,
    CookingRangeDay2,        !- Name
    FRACTION,                !- Schedule Type Limits Name
    0.04715848452508,        !- Hour 1
    0.04715848452508,        !- Hour 2
    0.0235458911419424,      !- Hour 3
    0.0235458911419424,      !- Hour 4
    0.04715848452508,        !- Hour 5
    0.0707043756670224,      !- Hour 6
    0.1650880469583778,      !- Hour 7
    0.2830176093916755,      !- Hour 8
    0.3065635005336179,      !- Hour 9
    0.3207710779082177,      !- Hour 10
    0.2830176093916755,      !- Hour 11
    0.3301760939167556,      !- Hour 12
    0.3773345784418357,      !- Hour 13
    0.3065635005336179,      !- Hour 14
    0.2924226254002134,      !- Hour 15
    0.3773345784418357,      !- Hour 16
    0.6131937033084311,      !- Hour 17
    1,                       !- Hour 18
    0.7783484525080043,      !- Hour 19
    0.4009471718249733,      !- Hour 20
    0.2358591248665955,      !- Hour 21
    0.1650880469583778,      !- Hour 22
    0.103721985058698,       !- Hour 23
    0.0707043756670224;      !- Hour 24

Schedule:Day:Hourly,
    CookingRangeDay3,        !- Name
    FRACTION,                !- Schedule Type Limits Name
    0.0425947186056147,      !- Hour 1
    0.0425947186056147,      !- Hour 2
    0.021267235739437,       !- Hour 3
    0.021267235739437,       !- Hour 4
    0.0425947186056147,      !- Hour 5
    0.0638619543450517,      !- Hour 6
    0.1491116386830218,      !- Hour 7
    0.2556285587604288,      !- Hour 8
    0.2768957944998659,      !- Hour 9
    0.2897284324956169,      !- Hour 10
    0.2556285587604288,      !- Hour 11
    0.2982232773660435,      !- Hour 12
    0.3408179959716583,      !- Hour 13
    0.2768957944998659,      !- Hour 14
    0.2641234036308555,      !- Hour 15
    0.3408179959716583,      !- Hour 16
    0.5538518361264724,      !- Hour 17
    0.903224924095298,       !- Hour 18
    0.7030237219362347,      !- Hour 19
    0.3621454788378359,      !- Hour 20
    0.2130338401548142,      !- Hour 21
    0.1491116386830218,      !- Hour 22
    0.0936842820816561,      !- Hour 23
    0.0638619543450517;      !- Hour 24

Schedule:Day:Hourly,
    CookingRangeDay4,        !- Name
    FRACTION,                !- Schedule Type Limits Name
    0.0424425070797535,      !- Hour 1
    0.0424425070797535,      !- Hour 2
    0.0211912376225643,      !- Hour 3
    0.0211912376225643,      !- Hour 4
    0.0424425070797535,      !- Hour 5
    0.0636337447023178,      !- Hour 6
    0.1485787906964497,      !- Hour 7
    0.2547150743131459,      !- Hour 8
    0.2759063119357102,      !- Hour 9
    0.2886930927107986,      !- Hour 10
    0.2547150743131459,      !- Hour 11
    0.2971575813928994,      !- Hour 12
    0.3396000884726529,      !- Hour 13
    0.2759063119357102,      !- Hour 14
    0.2631795629952466,      !- Hour 15
    0.3396000884726529,      !- Hour 16
    0.5518726557060453,      !- Hour 17
    0.8999972646954238,      !- Hour 18
    0.7005114782371198,      !- Hour 19
    0.3608513579298421,      !- Hour 20
    0.2122725672333924,      !- Hour 21
    0.1485787906964497,      !- Hour 22
    0.0933495028416078,      !- Hour 23
    0.0636337447023178;      !- Hour 24

Schedule:Day:Hourly,
    CookingRangeDay5,        !- Name
    FRACTION,                !- Schedule Type Limits Name
    0.0425947186056147,      !- Hour 1
    0.0425947186056147,      !- Hour 2
    0.021267235739437,       !- Hour 3
    0.021267235739437,       !- Hour 4
    0.0425947186056147,      !- Hour 5
    0.0638619543450517,      !- Hour 6
    0.1491116386830218,      !- Hour 7
    0.2556285587604288,      !- Hour 8
    0.2768957944998659,      !- Hour 9
    0.2897284324956169,      !- Hour 10
    0.2556285587604288,      !- Hour 11
    0.2982232773660435,      !- Hour 12
    0.3408179959716583,      !- Hour 13
    0.2768957944998659,      !- Hour 14
    0.2641234036308555,      !- Hour 15
    0.3408179959716583,      !- Hour 16
    0.5538518361264724,      !- Hour 17
    0.903224924095298,       !- Hour 18
    0.7030237219362347,      !- Hour 19
    0.3621454788378359,      !- Hour 20
    0.2130338401548142,      !- Hour 21
    0.1491116386830218,      !- Hour 22
    0.0936842820816561,      !- Hour 23
    0.0638619543450517;      !- Hour 24

Schedule:Day:Hourly,
    CookingRangeDay6,        !- Name
    FRACTION,                !- Schedule Type Limits Name
    0.0382506704537061,      !- Hour 1
    0.0382506704537061,      !- Hour 2
    0.0190982838333214,      !- Hour 3
    0.0190982838333214,      !- Hour 4
    0.0382506704537061,      !- Hour 5
    0.0573489542870275,      !- Hour 6
    0.1339043979815028,      !- Hour 7
    0.2295581255092996,      !- Hour 8
    0.248656409342621,       !- Hour 9
    0.2601803029870898,      !- Hour 10
    0.2295581255092996,      !- Hour 11
    0.2678087959630057,      !- Hour 12
    0.3060594664167118,      !- Hour 13
    0.248656409342621,       !- Hour 14
    0.2371866184852155,      !- Hour 15
    0.3060594664167118,      !- Hour 16
    0.4973669214723053,      !- Hour 17
    0.8111089836519962,      !- Hour 18
    0.6313254222408714,      !- Hour 19
    0.3252118530370964,      !- Hour 20
    0.1913074550555936,      !- Hour 21
    0.1339043979815028,      !- Hour 22
    0.084129833883328,       !- Hour 23
    0.0573489542870275;      !- Hour 24

Schedule:Day:Hourly,
    CookingRangeDay7,        !- Name
    FRACTION,                !- Schedule Type Limits Name
    0.03853832443902,        !- Hour 1
    0.03853832443902,        !- Hour 2
    0.0192419073931741,      !- Hour 3
    0.0192419073931741,      !- Hour 4
    0.03853832443902,        !- Hour 5
    0.0577802318321941,      !- Hour 6
    0.134911390362906,       !- Hour 7
    0.231284456286792,       !- Hour 8
    0.2505263636799661,      !- Hour 9
    0.2621369196990768,      !- Hour 10
    0.231284456286792,       !- Hour 11
    0.2698227807258121,      !- Hour 12
    0.3083611051648321,      !- Hour 13
    0.2505263636799661,      !- Hour 14
    0.2389703173135272,      !- Hour 15
    0.3083611051648321,      !- Hour 16
    0.5011072370126041,      !- Hour 17
    0.8172087128568432,      !- Hour 18
    0.636073137028182,       !- Hour 19
    0.327657522210678,       !- Hour 20
    0.192746131847772,       !- Hour 21
    0.134911390362906,       !- Hour 22
    0.0847625099047753,      !- Hour 23
    0.0577802318321941;      !- Hour 24

Schedule:Day:Hourly,
    CookingRangeDay8,        !- Name
    FRACTION,                !- Schedule Type Limits Name
    0.03853832443902,        !- Hour 1
    0.03853832443902,        !- Hour 2
    0.0192419073931741,      !- Hour 3
    0.0192419073931741,      !- Hour 4
    0.03853832443902,        !- Hour 5
    0.0577802318321941,      !- Hour 6
    0.134911390362906,       !- Hour 7
    0.231284456286792,       !- Hour 8
    0.2505263636799661,      !- Hour 9
    0.2621369196990768,      !- Hour 10
    0.231284456286792,       !- Hour 11
    0.2698227807258121,      !- Hour 12
    0.3083611051648321,      !- Hour 13
    0.2505263636799661,      !- Hour 14
    0.2389703173135272,      !- Hour 15