
OS:Version,
  {db834919-a1af-45ba-b266-9c2b6836589b}, !- Handle
  1.0.0;                                  !- Version Identifier

OS:Site,
  {f58de48f-b3fb-44b0-84ed-876e8b944817}, !- Handle
  USA IL-CHICAGO-OHARE,                   !- Name
  41.77,                                  !- Latitude {deg}
  -87.75,                                 !- Longitude {deg}
  -6,                                     !- Time Zone {hr}
  190,                                    !- Elevation {m}
  City;                                   !- Terrain

OS:SimulationControl,
  {0189e14e-3fd1-48c3-8fab-d1e06a041126}, !- Handle
  Yes,                                    !- Do Zone Sizing Calculation
  Yes,                                    !- Do System Sizing Calculation
  Yes,                                    !- Do Plant Sizing Calculation
  Yes,                                    !- Run Simulation for Sizing Periods
  No,                                     !- Run Simulation for Weather File Run Periods
  0.04,                                   !- Loads Convergence Tolerance Value
  0.2,                                    !- Temperature Convergence Tolerance Value {deltaC}
  FullInteriorAndExterior,                !- Solar Distribution
  25,                                     !- Maximum Number of Warmup Days
  6;                                      !- Minimum Number of Warmup Days

OS:Construction,
  {e3d0b686-01d3-4383-91b7-8e3732aad37f}, !- Handle
  DropCeiling,                            !- Name
  {6387f1ae-455d-4c0c-a435-4c983010ec87}, !- Surface Rendering Name
  {11b287e8-4090-43aa-88cc-5343791dcdd9}; !- Layer 1

OS:Material,
  {11b287e8-4090-43aa-88cc-5343791dcdd9}, !- Handle
  Std AC02,                               !- Name
  MediumSmooth,                           !- Roughness
  0.0127,                                 !- Thickness {m}
  0.057,                                  !- Conductivity {W/m-K}
  288,                                    !- Density {kg/m3}
  1339,                                   !- Specific Heat {J/kg-K}
  0.9,                                    !- Thermal Absorptance
  0.7,                                    !- Solar Absorptance
  0.2;                                    !- Visible Absorptance

OS:SpaceInfiltration:DesignFlowRate,
  {c0bdbb1d-0572-4f6c-8200-7983fba19858}, !- Handle
  Perimeter_top_ZN_1_Infiltration,        !- Name
  {dd4ebf2b-5ffa-4335-8961-1bfd6cd19677}, !- Space or SpaceType Name
  {68bee004-a559-42a6-87f0-4ebb8cbcf6c3}, !- Schedule Name
  Flow/ExteriorArea,                      !- Design Flow Rate Calculation Method
  ,                                       !- Design Flow Rate {m3/s}
  ,                                       !- Flow per Space Floor Area {m3/s-m2}
  0.000302,                               !- Flow per Exterior Surface Area {m3/s-m2}
  ,                                       !- Air Changes per Hour {1/hr}
  1,                                      !- Constant Term Coefficient
  0,                                      !- Temperature Term Coefficient
  0,                                      !- Velocity Term Coefficient
  0;                                      !- Velocity Squared Term Coefficient

OS:ThermalZone,
  {4a0e2e45-d9ec-4074-8716-887c372b0fbd}, !- Handle
  Perimeter_top_ZN_1 Thermal Zone,        !- Name
  1,                                      !- Multiplier
  ,                                       !- Ceiling Height {m}
  ,                                       !- Volume {m3}
  ,                                       !- Floor Area {m2}
  ,                                       !- Zone Inside Convection Algorithm
  ,                                       !- Zone Outside Convection Algorithm
  ,                                       !- Zone Conditioning Equipment List Name
  {46d2a940-03fe-4ec4-8157-078621a6931c}, !- Zone Air Inlet Port List
  {056a865d-e647-44c6-8669-6980815ba20e}, !- Zone Air Exhaust Port List
  {b862f6c9-8ad7-4949-82a4-70e66e24aeac}, !- Zone Air Node Name
  ,                                       !- Zone Return Air Node Name
  ,                                       !- Primary Daylighting Control Name
  ,                                       !- Fraction of Zone Controlled by Primary Daylighting Control
  ,                                       !- Secondary Daylighting Control Name
  ,                                       !- Fraction of Zone Controlled by Secondary Daylighting Control
  ,                                       !- Illuminance Map Name
  {61adf370-2aae-431c-9c61-92f50905c817}, !- Group Rendering Name
  {b2d70706-cda9-4f7c-ac7c-250bfbbe2aed}, !- Thermostat Name
  No;                                     !- Use Ideal Air Loads

OS:Node,
  {abc1cc18-4c46-491b-afcd-108fc280b8e7}, !- Handle
  {2ffa4ddf-39a7-4ecd-99e3-cc438d7bf030}, !- Name
  {b862f6c9-8ad7-4949-82a4-70e66e24aeac}, !- Inlet Port
  ;                                       !- Outlet Port

OS:Connection,
  {b862f6c9-8ad7-4949-82a4-70e66e24aeac}, !- Handle
  {08ef385b-39f2-4fc5-9ca3-d218cf8100f1}, !- Name
  {4a0e2e45-d9ec-4074-8716-887c372b0fbd}, !- Source Object
  11,                                     !- Outlet Port
  {abc1cc18-4c46-491b-afcd-108fc280b8e7}, !- Target Object
  2;                                      !- Inlet Port

OS:PortList,
  {46d2a940-03fe-4ec4-8157-078621a6931c}, !- Handle
  {199464e6-1884-432f-90cc-05cc510352ed}, !- Name
  {4a0e2e45-d9ec-4074-8716-887c372b0fbd}; !- HVAC Component

OS:PortList,
  {056a865d-e647-44c6-8669-6980815ba20e}, !- Handle
  {69544643-6277-4f6a-ae89-708f2e0bce7e}, !- Name
  {4a0e2e45-d9ec-4074-8716-887c372b0fbd}; !- HVAC Component

OS:Sizing:Zone,
  {482ddcf5-2e29-4951-a4c1-c278469be65d}, !- Handle
  {4a0e2e45-d9ec-4074-8716-887c372b0fbd}, !- Zone or ZoneList Name
  14,                                     !- Zone Cooling Design Supply Air Temperature {C}
  40,                                     !- Zone Heating Design Supply Air Temperature {C}
  0.0085,                                 !- Zone Cooling Design Supply Air Humidity Ratio {kg-H2O/kg-air}
  0.008,                                  !- Zone Heating Design Supply Air Humidity Ratio {kg-H2O/kg-air}
  ,                                       !- Zone Heating Sizing Factor
  ,                                       !- Zone Cooling Sizing Factor
  DesignDay,                              !- Cooling Design Air Flow Method
  ,                                       !- Cooling Design Air Flow Rate {m3/s}
  ,                                       !- Cooling Minimum Air Flow per Zone Floor Area {m3/s-m2}
  ,                                       !- Cooling Minimum Air Flow {m3/s}
  ,                                       !- Cooling Minimum Air Flow Fraction
  DesignDay,                              !- Heating Design Air Flow Method
  ,                                       !- Heating Design Air Flow Rate {m3/s}
  ,                                       !- Heating Maximum Air Flow per Zone Floor Area {m3/s-m2}
  ,                                       !- Heating Maximum Air Flow {m3/s}
  ,                                       !- Heating Maximum Air Flow Fraction
  ,                                       !- Design Zone Air Distribution Effectiveness in Cooling Mode
  ;                                       !- Design Zone Air Distribution Effectiveness in Heating Mode

OS:ZoneHVAC:EquipmentList,
  {67f8f0d9-f66e-4f92-a2ac-e7afef53ba62}, !- Handle
  {74b82137-6a1a-4785-b002-0e701f500217}, !- Name
  {4a0e2e45-d9ec-4074-8716-887c372b0fbd}; !- Thermal Zone

OS:Space,
  {dd4ebf2b-5ffa-4335-8961-1bfd6cd19677}, !- Handle
  Perimeter_top_ZN_1,                     !- Name
  ,                                       !- Space Type Name
  ,                                       !- Default Construction Set Name
  ,                                       !- Default Schedule Set Name
  0,                                      !- Direction of Relative North {deg}
  0,                                      !- X Origin {m}
  0,                                      !- Y Origin {m}
  0,                                      !- Z Origin {m}
  ,                                       !- Building Story Name
  {4a0e2e45-d9ec-4074-8716-887c372b0fbd}, !- Thermal Zone Name
  Yes,                                    !- Part of Total Floor Area
  ;                                       !- Design Specification Outdoor Air Object Name

OS:ThermostatSetpoint:DualSetpoint,
  {b2d70706-cda9-4f7c-ac7c-250bfbbe2aed}, !- Handle
  {abf45c79-d3ea-490d-8bea-ae0af6e9202a}, !- Name
  {3a50e9d7-a1af-4bbf-be3f-4955618692cf}, !- Heating Setpoint Temperature Schedule Name
  {4b7cb78f-7301-4cf4-8e78-fbe30b3b9827}; !- Cooling Setpoint Temperature Schedule Name

OS:Schedule:Compact,
  {3a50e9d7-a1af-4bbf-be3f-4955618692cf}, !- Handle
  HTGSETP_SCH,                            !- Name
  {4481f5d1-4329-4feb-933e-483f6d2f8fe7}, !- Schedule Type Limits Name
  Through: 12/31,                         !- Field 1
  For: Weekdays,                          !- Field 2
  Until: 06:00,                           !- Field 3
  15.6,                                   !- Field 4
  Until: 22:00,                           !- Field 5
  21.0,                                   !- Field 6
  Until: 24:00,                           !- Field 7
  15.6,                                   !- Field 8
  For SummerDesignDay,                    !- Field 9
  Until: 24:00,                           !- Field 10
  15.6,                                   !- Field 11
  For: Saturday,                          !- Field 12
  Until: 06:00,                           !- Field 13
  15.6,                                   !- Field 14
  Until: 18:00,                           !- Field 15
  21.0,                                   !- Field 16
  Until: 24:00,                           !- Field 17
  15.6,                                   !- Field 18
  For: WinterDesignDay,                   !- Field 19
  Until: 24:00,                           !- Field 20
  21.0,                                   !- Field 21
  For: AllOtherDays,                      !- Field 22
  Until: 24:00,                           !- Field 23
  15.6;                                   !- Field 24

OS:ScheduleTypeLimits,
  {4481f5d1-4329-4feb-933e-483f6d2f8fe7}, !- Handle
  Temperature,                            !- Name
  -60,                                    !- Lower Limit Value {BasedOnField A4}
  200,                                    !- Upper Limit Value {BasedOnField A4}
  CONTINUOUS,                             !- Numeric Type
  Temperature;                            !- Unit Type

OS:Schedule:Compact,
  {4b7cb78f-7301-4cf4-8e78-fbe30b3b9827}, !- Handle
  CLGSETP_SCH,                            !- Name
  {4481f5d1-4329-4feb-933e-483f6d2f8fe7}, !- Schedule Type Limits Name
  Through: 12/31,                         !- Field 1
  For: Weekdays SummerDesignDay,          !- Field 2
  Until: 06:00,                           !- Field 3
  26.7,                                   !- Field 4
  Until: 22:00,                           !- Field 5
  24.0,                                   !- Field 6
  Until: 24:00,                           !- Field 7
  26.7,                                   !- Field 8
  For: Saturday,                          !- Field 9
  Until: 06:00,                           !- Field 10
  26.7,                                   !- Field 11
  Until: 18:00,                           !- Field 12
  24.0,                                   !- Field 13
  Until: 24:00,                           !- Field 14
  26.7,                                   !- Field 15
  For WinterDesignDay,                    !- Field 16
  Until: 24:00,                           !- Field 17
  26.7,                                   !- Field 18
  For: AllOtherDays,                      !- Field 19
  Until: 24:00,                           !- Field 20
  26.7;                                   !- Field 21

OS:Schedule:Compact,
  {68bee004-a559-42a6-87f0-4ebb8cbcf6c3}, !- Handle
  INFIL_QUARTER_ON_SCH,                   !- Name
  {b59c67b5-b646-45cc-a092-0d39724abd38}, !- Schedule Type Limits Name
  Through: 12/31,                         !- Field 1
  For: Weekdays SummerDesignDay,          !- Field 2
  Until: 06:00,                           !- Field 3
  1.0,                                    !- Field 4
  Until: 22:00,                           !- Field 5
  0.25,                                   !- Field 6
  Until: 24:00,                           !- Field 7
  1.0,                                    !- Field 8
  For: Saturday WinterDesignDay,          !- Field 9
  Until: 06:00,                           !- Field 10
  1.0,                                    !- Field 11
  Until: 18:00,                           !- Field 12
  0.25,                                   !- Field 13
  Until: 24:00,                           !- Field 14
  1.0,                                    !- Field 15
  For: Sunday Holidays AllOtherDays,      !- Field 16
  Until: 24:00,                           !- Field 17
  1.0;                                    !- Field 18

OS:ScheduleTypeLimits,
  {b59c67b5-b646-45cc-a092-0d39724abd38}, !- Handle
  Fraction,                               !- Name
  0,                                      !- Lower Limit Value {BasedOnField A4}
  1,                                      !- Upper Limit Value {BasedOnField A4}
  CONTINUOUS;                             !- Numeric Type

OS:Surface,
  {6e931bf8-478e-4fa4-89ad-16d269004d00}, !- Handle
  Core_top_ZN_5_Wall_South,               !- Name
  Wall,                                   !- Surface Type
  {11b01a0c-7a85-4b51-bd44-cb6e53633e82}, !- Construction Name
  {bfb86c61-319a-44b4-9d44-dd589c14b354}, !- Space Name
  Surface,                                !- Outside Boundary Condition
  {ebc5ab22-9242-4431-a8ca-acfc0b89881a}, !- Outside Boundary Condition Object
  NoSun,                                  !- Sun Exposure
  NoWind,                                 !- Wind Exposure
  ,                                       !- View Factor to Ground
  ,                                       !- Number of Vertices
  4.5732, 4.5732, 10.668,                 !- X,Y,Z Vertex 1 {m}
  4.5732, 4.5732, 7.9248,                 !- X,Y,Z Vertex 2 {m}
  45.3375, 4.5732, 7.9248,                !- X,Y,Z Vertex 3 {m}
  45.3375, 4.5732, 10.668;                !- X,Y,Z Vertex 4 {m}

OS:Construction,
  {11b01a0c-7a85-4b51-bd44-cb6e53633e82}, !- Handle
  int-walls,                              !- Name
  {30043dcb-7dc0-4a20-83ff-eb773b4abe4a}, !- Surface Rendering Name
  {e1636100-1db3-41e5-bbdc-2949dc6d6585}, !- Layer 1
  {e1636100-1db3-41e5-bbdc-2949dc6d6585}; !- Layer 2

OS:Material,
  {e1636100-1db3-41e5-bbdc-2949dc6d6585}, !- Handle
  1/2IN Gypsum,                           !- Name
  Smooth,                                 !- Roughness
  0.0127,                                 !- Thickness {m}
  0.16,                                   !- Conductivity {W/m-K}
  784.9,                                  !- Density {kg/m3}
  830,                                    !- Specific Heat {J/kg-K}
  0.9,                                    !- Thermal Absorptance
  0.92,                                   !- Solar Absorptance
  0.92;                                   !- Visible Absorptance

OS:ThermalZone,
  {4d074629-667e-401b-a698-f8fba854bc08}, !- Handle
  Core_top Thermal Zone,                  !- Name
  1,                                      !- Multiplier
  ,                                       !- Ceiling Height {m}
  ,                                       !- Volume {m3}
  ,                                       !- Floor Area {m2}
  ,                                       !- Zone Inside Convection Algorithm
  ,                                       !- Zone Outside Convection Algorithm
  ,                                       !- Zone Conditioning Equipment List Name
  {c9b0f99b-8438-4661-8aa3-a16a686876fd}, !- Zone Air Inlet Port List
  {282cce83-cdc6-4850-add4-c0ce8972aca0}, !- Zone Air Exhaust Port List
  {3db25e31-1dd2-4b6d-8e13-36e5e5cd9643}, !- Zone Air Node Name
  ,                                       !- Zone Return Air Node Name
  ,                                       !- Primary Daylighting Control Name
  ,                                       !- Fraction of Zone Controlled by Primary Daylighting Control
  ,                                       !- Secondary Daylighting Control Name
  ,                                       !- Fraction of Zone Controlled by Secondary Daylighting Control
  ,                                       !- Illuminance Map Name
  {3126d1c7-ca3d-486e-8cf7-b348722d41be}, !- Group Rendering Name
  {6f78236d-2642-462d-9086-b73ee4236ddb}, !- Thermostat Name
  No;                                     !- Use Ideal Air Loads

OS:Node,
  {b9c3c153-23f0-4c3a-bf4e-8ece0125e8c7}, !- Handle
  {64710df3-4b41-43d0-87ae-462350c0ef18}, !- Name
  {3db25e31-1dd2-4b6d-8e13-36e5e5cd9643}, !- Inlet Port
  ;                                       !- Outlet Port

OS:Connection,
  {3db25e31-1dd2-4b6d-8e13-36e5e5cd9643}, !- Handle
  {1d9f5974-d224-43c7-ba97-2a5e9c792632}, !- Name
  {4d074629-667e-401b-a698-f8fba854bc08}, !- Source Object
  11,                                     !- Outlet Port
  {b9c3c153-23f0-4c3a-bf4e-8ece0125e8c7}, !- Target Object
  2;                                      !- Inlet Port

OS:PortList,
  {c9b0f99b-8438-4661-8aa3-a16a686876fd}, !- Handle
  {05f201df-1ebf-4fef-a1e8-65786dca94af}, !- Name
  {4d074629-667e-401b-a698-f8fba854bc08}; !- HVAC Component

OS:PortList,
  {282cce83-cdc6-4850-add4-c0ce8972aca0}, !- Handle
  {7cce8384-873f-46f2-8c8a-34d2d7635550}, !- Name
  {4d074629-667e-401b-a698-f8fba854bc08}; !- HVAC Component

OS:Sizing:Zone,
  {3d99ed93-409e-4827-950a-24e9ded2e544}, !- Handle
  {4d074629-667e-401b-a698-f8fba854bc08}, !- Zone or ZoneList Name
  14,                                     !- Zone Cooling Design Supply Air Temperature {C}
  40,                                     !- Zone Heating Design Supply Air Temperature {C}
  0.0085,                                 !- Zone Cooling Design Supply Air Humidity Ratio {kg-H2O/kg-air}
  0.008,                                  !- Zone Heating Design Supply Air Humidity Ratio {kg-H2O/kg-air}
  ,                                       !- Zone Heating Sizing Factor
  ,                                       !- Zone Cooling Sizing Factor
  DesignDay,                              !- Cooling Design Air Flow Method
  ,                                       !- Cooling Design Air Flow Rate {m3/s}
  ,                                       !- Cooling Minimum Air Flow per Zone Floor Area {m3/s-m2}
  ,                                       !- Cooling Minimum Air Flow {m3/s}
  ,                                       !- Cooling Minimum Air Flow Fraction
  DesignDay,                              !- Heating Design Air Flow Method
  ,                                       !- Heating Design Air Flow Rate {m3/s}
  ,                                       !- Heating Maximum Air Flow per Zone Floor Area {m3/s-m2}
  ,                                       !- Heating Maximum Air Flow {m3/s}
  ,                                       !- Heating Maximum Air Flow Fraction
  ,                                       !- Design Zone Air Distribution Effectiveness in Cooling Mode
  ;                                       !- Design Zone Air Distribution Effectiveness in Heating Mode

OS:ZoneHVAC:EquipmentList,
  {752e07dc-fd15-4097-8f4b-c82ac80848b1}, !- Handle
  {28a3e312-3bf1-4ffb-9ff0-2523f251ce51}, !- Name
  {4d074629-667e-401b-a698-f8fba854bc08}; !- Thermal Zone

OS:Space,
  {bfb86c61-319a-44b4-9d44-dd589c14b354}, !- Handle
  Core_top,                               !- Name
  ,                                       !- Space Type Name
  ,                                       !- Default Construction Set Name
  ,                                       !- Default Schedule Set Name
  0,                                      !- Direction of Relative North {deg}
  0,                                      !- X Origin {m}
  0,                                      !- Y Origin {m}
  0,                                      !- Z Origin {m}
  ,                                       !- Building Story Name
  {4d074629-667e-401b-a698-f8fba854bc08}, !- Thermal Zone Name
  Yes;                                    !- Part of Total Floor Area

OS:ThermostatSetpoint:DualSetpoint,
  {6f78236d-2642-462d-9086-b73ee4236ddb}, !- Handle
  {2eb47155-f5cd-45eb-8592-402079bb9880}, !- Name
  {3a50e9d7-a1af-4bbf-be3f-4955618692cf}, !- Heating Setpoint Temperature Schedule Name
  {4b7cb78f-7301-4cf4-8e78-fbe30b3b9827}; !- Cooling Setpoint Temperature Schedule Name

OS:SubSurface,
  {797f5308-a6f2-44aa-8646-e3bc7f3b771a}, !- Handle
  Perimeter_bot_ZN_2_Wall_East_Window,    !- Name
  FixedWindow,                            !- Sub Surface Type
  {119df3f1-42b4-4e50-8671-9820f36294bc}, !- Construction Name
  {1cd8a146-667b-4938-8214-5559fc78fdf0}, !- Surface Name
  ,                                       !- Outside Boundary Condition Object
  ,                                       !- View Factor to Ground
  ,                                       !- Shading Control Name
  ,                                       !- Frame and Divider Name
  1,                                      !- Multiplier
  ,                                       !- Number of Vertices
  49.911, 0, 2.3293,                      !- X,Y,Z Vertex 1 {m}
  49.911, 0, 1.0213,                      !- X,Y,Z Vertex 2 {m}
  49.911, 33.2737, 1.0213,                !- X,Y,Z Vertex 3 {m}
  49.911, 33.2737, 2.3293;                !- X,Y,Z Vertex 4 {m}

OS:Construction,
  {119df3f1-42b4-4e50-8671-9820f36294bc}, !- Handle
  Window Non-res Fixed,                   !- Name
  {e2e90f81-1ee8-4df8-81b3-e20b22c223a9}, !- Surface Rendering Name
  {1e5824f6-3049-4b62-a472-41166771754a}; !- Layer 1

OS:WindowMaterial:SimpleGlazingSystem,
  {1e5824f6-3049-4b62-a472-41166771754a}, !- Handle
  NonRes Fixed Assembly Window,           !- Name
  3.23646,                                !- U-Factor {W/m2-K}
  0.39;                                   !- Solar Heat Gain Coefficient

OS:Surface,
  {1cd8a146-667b-4938-8214-5559fc78fdf0}, !- Handle
  Perimeter_bot_ZN_2_Wall_East,           !- Name
  Wall,                                   !- Surface Type
  {26674000-7f6a-4d2e-92c6-86bb968cbb75}, !- Construction Name
  {2fd33ba6-d959-48da-9b9f-d1cfebedf88e}, !- Space Name
  Outdoors,                               !- Outside Boundary Condition
  ,                                       !- Outside Boundary Condition Object
  SunExposed,                             !- Sun Exposure
  WindExposed,                            !- Wind Exposure
  ,                                       !- View Factor to Ground
  ,                                       !- Number of Vertices
  49.911, 0, 2.7432,                      !- X,Y,Z Vertex 1 {m}
  49.911, 0, 0,                           !- X,Y,Z Vertex 2 {m}
  49.911, 33.2738, 0,                     !- X,Y,Z Vertex 3 {m}
  49.911, 33.2738, 2.7432;                !- X,Y,Z Vertex 4 {m}

OS:Construction,
  {26674000-7f6a-4d2e-92c6-86bb968cbb75}, !- Handle
  Steel Frame Non-res Ext Wall,           !- Name
  {c974baa1-ad1b-4586-91d3-57535cf8664d}, !- Surface Rendering Name
  {c2932732-def0-40d7-b386-bf17c12c921e}, !- Layer 1
  {2280b4c2-7f1b-48c7-b602-27a58375eac3}, !- Layer 2
  {e1636100-1db3-41e5-bbdc-2949dc6d6585}; !- Layer 3

OS:Material,
  {c2932732-def0-40d7-b386-bf17c12c921e}, !- Handle
  Wood Siding,                            !- Name
  MediumSmooth,                           !- Roughness
  0.01,                                   !- Thickness {m}
  0.11,                                   !- Conductivity {W/m-K}
  544.62,                                 !- Density {kg/m3}
  1210,                                   !- Specific Heat {J/kg-K}
  0.9,                                    !- Thermal Absorptance
  0.78,                                   !- Solar Absorptance
  0.78;                                   !- Visible Absorptance

OS:Material,
  {2280b4c2-7f1b-48c7-b602-27a58375eac3}, !- Handle
  Steel Frame NonRes Wall Insulation,     !- Name
  MediumRough,                            !- Roughness
  0.0870564552646045,                     !- Thickness {m}
  0.049,                                  !- Conductivity {W/m-K}
  265,                                    !- Density {kg/m3}
  836.8,                                  !- Specific Heat {J/kg-K}
  0.9,                                    !- Thermal Absorptance
  0.7,                                    !- Solar Absorptance
  0.7;                                    !- Visible Absorptance

OS:ThermalZone,
  {4fd58352-4394-4e2a-b4f5-210dd881e599}, !- Handle
  Perimeter_bot_ZN_2 Thermal Zone,        !- Name
  1,                                      !- Multiplier
  ,                                       !- Ceiling Height {m}
  ,                                       !- Volume {m3}
  ,                                       !- Floor Area {m2}
  ,                                       !- Zone Inside Convection Algorithm
  ,                                       !- Zone Outside Convection Algorithm
  ,                                       !- Zone Conditioning Equipment List Name
  {e60dd4ad-26f1-4bde-9794-7f2fdf66c95e}, !- Zone Air Inlet Port List
  {3f079108-8743-44d2-82f9-34527f1e0ab6}, !- Zone Air Exhaust Port List
  {a111466e-4048-4e9a-94de-e112bb2fca6d}, !- Zone Air Node Name
  ,                                       !- Zone Return Air Node Name
  ,                                       !- Primary Daylighting Control Name
  ,                                       !- Fraction of Zone Controlled by Primary Daylighting Control
  ,                                       !- Secondary Daylighting Control Name
  ,                                       !- Fraction of Zone Controlled by Secondary Daylighting Control
  ,                                       !- Illuminance Map Name
  {743e11a4-7a6e-4dc2-8826-439be3d471d3}, !- Group Rendering Name
  {049065b5-ecac-497a-9535-34d1f7b26df1}, !- Thermostat Name
  No;                                     !- Use Ideal Air Loads

OS:Node,
  {b4e291ae-1386-4b02-ab2b-313abbcca9f7}, !- Handle
  {5cf4c1aa-b86b-4025-8e63-d2783d69747b}, !- Name
  {a111466e-4048-4e9a-94de-e112bb2fca6d}, !- Inlet Port
  ;                                       !- Outlet Port

OS:Connection,
  {a111466e-4048-4e9a-94de-e112bb2fca6d}, !- Handle
  {f4070794-fe4f-4ee7-9bf8-9511ae9030cb}, !- Name
  {4fd58352-4394-4e2a-b4f5-210dd881e599}, !- Source Object
  11,                                     !- Outlet Port
  {b4e291ae-1386-4b02-ab2b-313abbcca9f7}, !- Target Object
  2;                                      !- Inlet Port

OS:PortList,
  {e60dd4ad-26f1-4bde-9794-7f2fdf66c95e}, !- Handle
  {f75404c6-506b-4e9e-a9f9-86429fefb977}, !- Name
  {4fd58352-4394-4e2a-b4f5-210dd881e599}; !- HVAC Component

OS:PortList,
  {3f079108-8743-44d2-82f9-34527f1e0ab6}, !- Handle
  {97cb6bae-f839-461f-ad45-1a39b31972c2}, !- Name
  {4fd58352-4394-4e2a-b4f5-210dd881e599}; !- HVAC Component

OS:Sizing:Zone,
  {8cf49ee9-f459-49b3-9def-3a32a1932985}, !- Handle
  {4fd58352-4394-4e2a-b4f5-210dd881e599}, !- Zone or ZoneList Name
  14,                                     !- Zone Cooling Design Supply Air Temperature {C}
  40,                                     !- Zone Heating Design Supply Air Temperature {C}
  0.0085,                                 !- Zone Cooling Design Supply Air Humidity Ratio {kg-H2O/kg-air}
  0.008,                                  !- Zone Heating Design Supply Air Humidity Ratio {kg-H2O/kg-air}
  ,                                       !- Zone Heating Sizing Factor
  ,                                       !- Zone Cooling Sizing Factor
  DesignDay,                              !- Cooling Design Air Flow Method
  ,                                       !- Cooling Design Air Flow Rate {m3/s}
  ,                                       !- Cooling Minimum Air Flow per Zone Floor Area {m3/s-m2}
  ,                                       !- Cooling Minimum Air Flow {m3/s}
  ,                                       !- Cooling Minimum Air Flow Fraction
  DesignDay,                              !- Heating Design Air Flow Method
  ,                                       !- Heating Design Air Flow Rate {m3/s}
  ,                                       !- Heating Maximum Air Flow per Zone Floor Area {m3/s-m2}
  ,                                       !- Heating Maximum Air Flow {m3/s}
  ,                                       !- Heating Maximum Air Flow Fraction
  ,                                       !- Design Zone Air Distribution Effectiveness in Cooling Mode
  ;                                       !- Design Zone Air Distribution Effectiveness in Heating Mode

OS:ZoneHVAC:EquipmentList,
  {5536f31a-5857-47b8-a02b-2fa8ad045dcf}, !- Handle
  {a5ca0c31-f278-4baf-99da-25a0a7435063}, !- Name
  {4fd58352-4394-4e2a-b4f5-210dd881e599}; !- Thermal Zone

OS:Space,
  {2fd33ba6-d959-48da-9b9f-d1cfebedf88e}, !- Handle
  Perimeter_bot_ZN_2,                     !- Name
  ,                                       !- Space Type Name
  ,                                       !- Default Construction Set Name
  ,                                       !- Default Schedule Set Name
  0,                                      !- Direction of Relative North {deg}
  0,                                      !- X Origin {m}
  0,                                      !- Y Origin {m}
  0,                                      !- Z Origin {m}
  ,                                       !- Building Story Name
  {4fd58352-4394-4e2a-b4f5-210dd881e599}, !- Thermal Zone Name
  Yes;                                    !- Part of Total Floor Area

OS:ThermostatSetpoint:DualSetpoint,
  {049065b5-ecac-497a-9535-34d1f7b26df1}, !- Handle
  {ae0fad8c-1e6c-4e8a-b556-3ed30164e8cd}, !- Name