
OS:Version,
  {247c59b4-354e-4dba-9af6-5d8e00b442fd}, !- Handle
  1.4.0;                                  !- Version Identifier

OS:Site,
  {76b9a372-5591-4007-86e9-75864264334a}, !- Handle
  USA IL-CHICAGO-OHARE,                   !- Name
  41.77,                                  !- Latitude {deg}
  -87.75,                                 !- Longitude {deg}
  -6,                                     !- Time Zone {hr}
  190,                                    !- Elevation {m}
  City;                                   !- Terrain

OS:SimulationControl,
  {532701e5-6a63-4be8-8fe2-ab10440ecdfd}, !- Handle
  Yes,                                    !- Do Zone Sizing Calculation
  Yes,                                    !- Do System Sizing Calculation
  Yes,                                    !- Do Plant Sizing Calculation
  Yes,                                    !- Run Simulation for Sizing Periods
  No,                                     !- Run Simulation for Weather File Run Periods
  0.04,                                   !- Loads Convergence Tolerance Value
  0.2,                                    !- Temperature Convergence Tolerance Value {deltaC}
  FullInteriorAndExterior,                !- Solar Distribution
  25,                                     !- Maximum Number of Warmup Days
  6;                                      !- Minimum Number of Warmup Days

OS:Surface,
  {7e6c68ea-5870-4ff1-8efc-2e5c24328880}, !- Handle
  Dining_Wall_North-PPAutoCreateOther,    !- Name
  Wall,                                   !- Surface Type
  {465d3ac4-cbd0-451a-82d1-989cfd884a9a}, !- Construction Name
  {be8fff1b-c220-4c8f-97cd-fd106d7e8aa1}, !- Space Name
  Surface,                                !- Outside Boundary Condition
  {62382460-a27f-4307-b81b-8c9b28025623}, !- Outside Boundary Condition Object
  NoSun,                                  !- Sun Exposure
  NoWind,                                 !- Wind Exposure
  ,                                       !- View Factor to Ground
  ,                                       !- Number of Vertices
  0, 16.4427, 3.0488,                     !- X,Y,Z Vertex 1 {m}
  0, 16.4427, 0,                          !- X,Y,Z Vertex 2 {m}
  22.6087, 16.4427, 0,                    !- X,Y,Z Vertex 3 {m}
  22.6087, 16.4427, 3.0488;               !- X,Y,Z Vertex 4 {m}

OS:Construction,
  {465d3ac4-cbd0-451a-82d1-989cfd884a9a}, !- Handle
  int-walls,                              !- Name
  ,                                       !- Surface Rendering Name
  {a8a56bea-35d6-43b8-83dc-ae8f097e1064}, !- Layer 1
  {a8a56bea-35d6-43b8-83dc-ae8f097e1064}; !- Layer 2

OS:Material,
  {a8a56bea-35d6-43b8-83dc-ae8f097e1064}, !- Handle
  1/2IN Gypsum,                           !- Name
  Smooth,                                 !- Roughness
  0.0127,                                 !- Thickness {m}
  0.16,                                   !- Conductivity {W/m-K}
  784.9,                                  !- Density {kg/m3}
  830,                                    !- Specific Heat {J/kg-K}
  0.9,                                    !- Thermal Absorptance
  0.92,                                   !- Solar Absorptance
  0.92;                                   !- Visible Absorptance

OS:ThermalZone,
  {98f9cc26-46d2-47a8-aa7c-b0887f200f47}, !- Handle
  Kitchen Thermal Zone,                   !- Name
  1,                                      !- Multiplier
  ,                                       !- Ceiling Height {m}
  ,                                       !- Volume {m3}
  ,                                       !- Floor Area {m2}
  ,                                       !- Zone Inside Convection Algorithm
  ,                                       !- Zone Outside Convection Algorithm
  ,                                       !- Zone Conditioning Equipment List Name
  {b47233d4-2d18-4590-ab7d-b98b24b605ef}, !- Zone Air Inlet Port List
  {710d0492-e3cc-4b35-8b21-89b7ef72e851}, !- Zone Air Exhaust Port List
  {402ff03b-cc55-48c0-9112-7e1fcc63a836}, !- Zone Air Node Name
  ,                                       !- Zone Return Air Node Name
  ,                                       !- Primary Daylighting Control Name
  ,                                       !- Fraction of Zone Controlled by Primary Daylighting Control
  ,                                       !- Secondary Daylighting Control Name
  ,                                       !- Fraction of Zone Controlled by Secondary Daylighting Control
  ,                                       !- Illuminance Map Name
  ,                                       !- Group Rendering Name
  {4d71335d-1f11-45a3-9b8b-563041e8b6a7}, !- Thermostat Name
  No;                                     !- Use Ideal Air Loads

OS:Node,
  {b53ab745-e468-4d6b-891b-e2d8b1c5daad}, !- Handle
  {647131af-11a3-49fa-8e01-6e65249ee837}, !- Name
  {402ff03b-cc55-48c0-9112-7e1fcc63a836}, !- Inlet Port
  ;                                       !- Outlet Port

OS:Connection,
  {402ff03b-cc55-48c0-9112-7e1fcc63a836}, !- Handle
  {5b672825-3cc7-4c61-86d9-f01edd56a75f}, !- Name
  {98f9cc26-46d2-47a8-aa7c-b0887f200f47}, !- Source Object
  11,                                     !- Outlet Port
  {b53ab745-e468-4d6b-891b-e2d8b1c5daad}, !- Target Object
  2;                                      !- Inlet Port

OS:PortList,
  {b47233d4-2d18-4590-ab7d-b98b24b605ef}, !- Handle
  {ed5c43bf-5cfa-46e7-8f88-7fc819ae633f}, !- Name
  {98f9cc26-46d2-47a8-aa7c-b0887f200f47}; !- HVAC Component

OS:PortList,
  {710d0492-e3cc-4b35-8b21-89b7ef72e851}, !- Handle
  {b292a949-5b1c-4dcf-8d66-3a54ef59fb44}, !- Name
  {98f9cc26-46d2-47a8-aa7c-b0887f200f47}; !- HVAC Component

OS:Sizing:Zone,
  {18c81220-eb90-4e5c-af59-19f02de506c5}, !- Handle
  {98f9cc26-46d2-47a8-aa7c-b0887f200f47}, !- Zone or ZoneList Name
  14,                                     !- Zone Cooling Design Supply Air Temperature {C}
  40,                                     !- Zone Heating Design Supply Air Temperature {C}
  0.0085,                                 !- Zone Cooling Design Supply Air Humidity Ratio {kg-H2O/kg-air}
  0.008,                                  !- Zone Heating Design Supply Air Humidity Ratio {kg-H2O/kg-air}
  ,                                       !- Zone Heating Sizing Factor
  ,                                       !- Zone Cooling Sizing Factor
  DesignDay,                              !- Cooling Design Air Flow Method
  ,                                       !- Cooling Design Air Flow Rate {m3/s}
  ,                                       !- Cooling Minimum Air Flow per Zone Floor Area {m3/s-m2}
  ,                                       !- Cooling Minimum Air Flow {m3/s}
  ,                                       !- Cooling Minimum Air Flow Fraction
  DesignDay,                              !- Heating Design Air Flow Method
  ,                                       !- Heating Design Air Flow Rate {m3/s}
  ,                                       !- Heating Maximum Air Flow per Zone Floor Area {m3/s-m2}
  ,                                       !- Heating Maximum Air Flow {m3/s}
  ,                                       !- Heating Maximum Air Flow Fraction
  ,                                       !- Design Zone Air Distribution Effectiveness in Cooling Mode
  ;                                       !- Design Zone Air Distribution Effectiveness in Heating Mode

OS:ZoneHVAC:EquipmentList,
  {c4234cf9-36ce-49f3-bfac-feb1ef7581c6}, !- Handle
  {2a3e677c-3241-46c3-b3cd-44f2628e70ca}, !- Name
  {98f9cc26-46d2-47a8-aa7c-b0887f200f47}; !- Thermal Zone

OS:Space,
  {be8fff1b-c220-4c8f-97cd-fd106d7e8aa1}, !- Handle
  Kitchen,                                !- Name
  ,                                       !- Space Type Name
  ,                                       !- Default Construction Set Name
  ,                                       !- Default Schedule Set Name
  0,                                      !- Direction of Relative North {deg}
  0,                                      !- X Origin {m}
  0,                                      !- Y Origin {m}
  0,                                      !- Z Origin {m}
  ,                                       !- Building Story Name
  {98f9cc26-46d2-47a8-aa7c-b0887f200f47}, !- Thermal Zone Name
  Yes;                                    !- Part of Total Floor Area

OS:ThermostatSetpoint:DualSetpoint,
  {4d71335d-1f11-45a3-9b8b-563041e8b6a7}, !- Handle
  {7fc62970-de19-42c7-956a-0df87077ee7b}, !- Name
  {ed370324-c191-4e1f-8344-9137548ef0ed}, !- Heating Setpoint Temperature Schedule Name
  {27722718-ffe5-4f2e-b064-5e1fe3652574}; !- Cooling Setpoint Temperature Schedule Name

OS:Schedule:Compact,
  {ed370324-c191-4e1f-8344-9137548ef0ed}, !- Handle
  HTGSETP_KITCHEN_SCH,                    !- Name
  {5397fa16-3375-45e2-bf57-4deecb4e96b3}, !- Schedule Type Limits Name
  Through: 12/31,                         !- Field 1
  For: SummerDesignDay,                   !- Field 2
  Until: 24:00,                           !- Field 3
  15.6,                                   !- Field 4
  For: WinterDesignDay,                   !- Field 5
  Until: 24:00,                           !- Field 6
  19,                                     !- Field 7
  For: AllOtherDays,                      !- Field 8
  Until: 01:00,                           !- Field 9
  19,                                     !- Field 10
  Until: 05:00,                           !- Field 11
  15.6,                                   !- Field 12
  Until: 24:00,                           !- Field 13
  19;                                     !- Field 14

OS:ScheduleTypeLimits,
  {5397fa16-3375-45e2-bf57-4deecb4e96b3}, !- Handle
  Temperature,                            !- Name
  -60,                                    !- Lower Limit Value {BasedOnField A4}
  200,                                    !- Upper Limit Value {BasedOnField A4}
  CONTINUOUS,                             !- Numeric Type
  Temperature;                            !- Unit Type

OS:Schedule:Compact,
  {27722718-ffe5-4f2e-b064-5e1fe3652574}, !- Handle
  CLGSETP_KITCHEN_SCH,                    !- Name
  {5397fa16-3375-45e2-bf57-4deecb4e96b3}, !- Schedule Type Limits Name
  Through: 12/31,                         !- Field 1
  For: WinterDesignDay,                   !- Field 2
  Until: 24:00,                           !- Field 3
  30,                                     !- Field 4
  For: AllOtherDays,                      !- Field 5
  Until: 01:00,                           !- Field 6
  26,                                     !- Field 7
  Until: 05:00,                           !- Field 8
  30,                                     !- Field 9
  Until: 24:00,                           !- Field 10
  26;                                     !- Field 11

OS:ScheduleTypeLimits,
  {267ddde7-f73f-46f8-8824-e284d8dd8a1a}, !- Handle
  {2c2a7884-10b0-449d-8a8d-2a0de79119a2}; !- Name

OS:Meter,
  {89b1792e-62b2-419a-94cd-dcc34d71aa30}, !- Handle
  Water Heater:WaterSystems:Gas,          !- Name
  HOURLY,                                 !- Reporting Frequency
  False,                                  !- Meter File Only
  False;                                  !- Cumulative

OS:Schedule:Compact,
  {7e7a675f-c27b-4c1d-87f0-d884d12a4da2}, !- Handle
  Kitchen Water Equipment Sensible fract sched, !- Name
  {7595d3ea-8648-4a51-a67d-5a5bc94ee24d}, !- Schedule Type Limits Name
  Through: 12/31,                         !- Field 1
  For: AllDays,                           !- Field 2
  Until: 24:00,                           !- Field 3
  0.2;                                    !- Field 4

OS:ScheduleTypeLimits,
  {7595d3ea-8648-4a51-a67d-5a5bc94ee24d}, !- Handle
  Fraction,                               !- Name
  0,                                      !- Lower Limit Value {BasedOnField A4}
  1,                                      !- Upper Limit Value {BasedOnField A4}
  CONTINUOUS;                             !- Numeric Type

OS:Timestep,
  {59b98fe2-740f-4a19-a89b-9d3cefe32ac7}, !- Handle
  4;                                      !- Number of Timesteps per Hour

OS:Surface,
  {62382460-a27f-4307-b81b-8c9b28025623}, !- Handle
  Dining_Wall_North,                      !- Name
  Wall,                                   !- Surface Type
  {465d3ac4-cbd0-451a-82d1-989cfd884a9a}, !- Construction Name
  {e03dbfe7-c167-47cb-8008-93d8a28ea01e}, !- Space Name
  Surface,                                !- Outside Boundary Condition
  {7e6c68ea-5870-4ff1-8efc-2e5c24328880}, !- Outside Boundary Condition Object
  NoSun,                                  !- Sun Exposure
  NoWind,                                 !- Wind Exposure
  ,                                       !- View Factor to Ground
  ,                                       !- Number of Vertices
  22.6087, 16.4427, 3.0488,               !- X,Y,Z Vertex 1 {m}
  22.6087, 16.4427, 0,                    !- X,Y,Z Vertex 2 {m}
  0, 16.4427, 0,                          !- X,Y,Z Vertex 3 {m}
  0, 16.4427, 3.0488;                     !- X,Y,Z Vertex 4 {m}

OS:ThermalZone,
  {da242c33-4d60-4c0b-987b-a0827f37dd54}, !- Handle
  Dining Thermal Zone,                    !- Name
  1,                                      !- Multiplier
  ,                                       !- Ceiling Height {m}
  ,                                       !- Volume {m3}
  ,                                       !- Floor Area {m2}
  ,                                       !- Zone Inside Convection Algorithm
  ,                                       !- Zone Outside Convection Algorithm
  ,                                       !- Zone Conditioning Equipment List Name
  {f1a6ec11-4ebd-49d4-961f-b9983c988504}, !- Zone Air Inlet Port List
  {0e7108fd-6b14-435c-a5a8-28acb288ce69}, !- Zone Air Exhaust Port List
  {6687b6f0-83fe-48d7-beb6-5de07b32c2f1}, !- Zone Air Node Name
  ,                                       !- Zone Return Air Node Name
  ,                                       !- Primary Daylighting Control Name
  ,                                       !- Fraction of Zone Controlled by Primary Daylighting Control
  ,                                       !- Secondary Daylighting Control Name
  ,                                       !- Fraction of Zone Controlled by Secondary Daylighting Control
  ,                                       !- Illuminance Map Name
  ,                                       !- Group Rendering Name
  {4b5e2f0a-eded-493c-b5cd-aa883124c38b}, !- Thermostat Name
  No;                                     !- Use Ideal Air Loads

OS:Node,
  {a24990cc-02f1-4f73-9ca1-839418d56071}, !- Handle
  {8b1e7f66-8ef9-4b6f-8867-639241646ee6}, !- Name
  {6687b6f0-83fe-48d7-beb6-5de07b32c2f1}, !- Inlet Port
  ;                                       !- Outlet Port

OS:Connection,
  {6687b6f0-83fe-48d7-beb6-5de07b32c2f1}, !- Handle
  {dbe6d00f-8101-42cf-a7a9-9c24b10845c1}, !- Name
  {da242c33-4d60-4c0b-987b-a0827f37dd54}, !- Source Object
  11,                                     !- Outlet Port
  {a24990cc-02f1-4f73-9ca1-839418d56071}, !- Target Object
  2;                                      !- Inlet Port

OS:PortList,
  {f1a6ec11-4ebd-49d4-961f-b9983c988504}, !- Handle
  {d9ae7b72-3a35-4e68-9c16-515dffae0323}, !- Name
  {da242c33-4d60-4c0b-987b-a0827f37dd54}; !- HVAC Component

OS:PortList,
  {0e7108fd-6b14-435c-a5a8-28acb288ce69}, !- Handle
  {23b6338e-c8bb-402b-804a-3cb04e9c7e71}, !- Name
  {da242c33-4d60-4c0b-987b-a0827f37dd54}; !- HVAC Component

OS:Sizing:Zone,
  {cc7a376d-a405-40df-b95e-3c83c5111cb6}, !- Handle
  {da242c33-4d60-4c0b-987b-a0827f37dd54}, !- Zone or ZoneList Name
  14,                                     !- Zone Cooling Design Supply Air Temperature {C}
  40,                                     !- Zone Heating Design Supply Air Temperature {C}
  0.0085,                                 !- Zone Cooling Design Supply Air Humidity Ratio {kg-H2O/kg-air}
  0.008,                                  !- Zone Heating Design Supply Air Humidity Ratio {kg-H2O/kg-air}
  ,                                       !- Zone Heating Sizing Factor
  ,                                       !- Zone Cooling Sizing Factor
  DesignDay,                              !- Cooling Design Air Flow Method
  ,                                       !- Cooling Design Air Flow Rate {m3/s}
  ,                                       !- Cooling Minimum Air Flow per Zone Floor Area {m3/s-m2}
  ,                                       !- Cooling Minimum Air Flow {m3/s}
  ,                                       !- Cooling Minimum Air Flow Fraction
  DesignDay,                              !- Heating Design Air Flow Method
  ,                                       !- Heating Design Air Flow Rate {m3/s}
  ,                                       !- Heating Maximum Air Flow per Zone Floor Area {m3/s-m2}
  ,                                       !- Heating Maximum Air Flow {m3/s}
  ,                                       !- Heating Maximum Air Flow Fraction
  ,                                       !- Design Zone Air Distribution Effectiveness in Cooling Mode
  ;                                       !- Design Zone Air Distribution Effectiveness in Heating Mode

OS:ZoneHVAC:EquipmentList,
  {5ef394bc-56ea-42ba-af30-f6c6c6bf22f4}, !- Handle
  {b96f3ab7-0231-4f94-a91f-ed9f5a5f074a}, !- Name
  {da242c33-4d60-4c0b-987b-a0827f37dd54}; !- Thermal Zone

OS:Space,
  {e03dbfe7-c167-47cb-8008-93d8a28ea01e}, !- Handle
  Dining,                                 !- Name
  ,                                       !- Space Type Name
  ,                                       !- Default Construction Set Name
  ,                                       !- Default Schedule Set Name
  0,                                      !- Direction of Relative North {deg}
  0,                                      !- X Origin {m}
  0,                                      !- Y Origin {m}
  0,                                      !- Z Origin {m}
  ,                                       !- Building Story Name
  {da242c33-4d60-4c0b-987b-a0827f37dd54}, !- Thermal Zone Name
  Yes;                                    !- Part of Total Floor Area

OS:ThermostatSetpoint:DualSetpoint,
  {4b5e2f0a-eded-493c-b5cd-aa883124c38b}, !- Handle
  {40dd7a7a-cf59-40bf-9c74-49b1326c9469}, !- Name
  {7be8a4b3-70c5-4cd8-a908-b2a2a9d6f806}, !- Heating Setpoint Temperature Schedule Name
  {ee9e1c8c-516e-42a3-9eb5-29db261d503e}; !- Cooling Setpoint Temperature Schedule Name

OS:Schedule:Compact,
  {7be8a4b3-70c5-4cd8-a908-b2a2a9d6f806}, !- Handle
  HTGSETP_SCH,                            !- Name
  {5397fa16-3375-45e2-bf57-4deecb4e96b3}, !- Schedule Type Limits Name
  Through: 12/31,                         !- Field 1
  For: SummerDesignDay,                   !- Field 2
  Until: 24:00,                           !- Field 3
  15.6,                                   !- Field 4
  For: WinterDesignDay,                   !- Field 5
  Until: 24:00,                           !- Field 6
  21,                                     !- Field 7
  For: AllOtherDays,                      !- Field 8
  Until: 01:00,                           !- Field 9
  21,                                     !- Field 10
  Until: 05:00,                           !- Field 11
  15.6,                                   !- Field 12
  Until: 24:00,                           !- Field 13
  21;                                     !- Field 14

OS:Schedule:Compact,
  {ee9e1c8c-516e-42a3-9eb5-29db261d503e}, !- Handle
  CLGSETP_SCH,                            !- Name
  {5397fa16-3375-45e2-bf57-4deecb4e96b3}, !- Schedule Type Limits Name
  Through: 12/31,                         !- Field 1
  For: WinterDesignDay,                   !- Field 2
  Until: 24:00,                           !- Field 3
  30,                                     !- Field 4
  For: AllOtherDays,                      !- Field 5
  Until: 01:00,                           !- Field 6
  24,                                     !- Field 7
  Until: 05:00,                           !- Field 8
  30,                                     !- Field 9
  Until: 24:00,                           !- Field 10
  24;                                     !- Field 11

OS:Curve:Quadratic,
  {c31c15c8-f934-4e9e-b5de-eeea2f3a1033}, !- Handle
  Measured_CoolCStandard10Ton_EIRFFF,     !- Name
  1.192,                                  !- Coefficient1 Constant
  -0.1917,                                !- Coefficient2 x
  0,                                      !- Coefficient3 x**2
  0.776,                                  !- Minimum Value of x {BasedOnField A2}
  1.197;                                  !- Maximum Value of x {BasedOnField A2}

OS:Surface,
  {395713d2-d68f-4ed0-a0cb-eaf1761536c8}, !- Handle
  Kitchen_Wall_West,                      !- Name
  Wall,                                   !- Surface Type
  {3fe123cf-1d4a-405f-9b83-7fc802aa51d5}, !- Construction Name
  {be8fff1b-c220-4c8f-97cd-fd106d7e8aa1}, !- Space Name
  Outdoors,                               !- Outside Boundary Condition
  ,                                       !- Outside Boundary Condition Object
  SunExposed,                             !- Sun Exposure
  WindExposed,                            !- Wind Exposure
  ,                                       !- View Factor to Ground
  ,                                       !- Number of Vertices
  0, 22.6087, 3.0488,                     !- X,Y,Z Vertex 1 {m}
  0, 22.6087, 0,                          !- X,Y,Z Vertex 2 {m}
  0, 16.4427, 0,                          !- X,Y,Z Vertex 3 {m}
  0, 16.4427, 3.0488;                     !- X,Y,Z Vertex 4 {m}

OS:Construction,
  {3fe123cf-1d4a-405f-9b83-7fc802aa51d5}, !- Handle
  Steel Frame Non-res Ext Wall,           !- Name
  ,                                       !- Surface Rendering Name
  {27fa5aa6-b8af-4069-8865-7ed5cd40a067}, !- Layer 1
  {5353aee6-2f18-4661-a5b2-1e749a1dc4b8}, !- Layer 2
  {a8a56bea-35d6-43b8-83dc-ae8f097e1064}; !- Layer 3

OS:Material,
  {27fa5aa6-b8af-4069-8865-7ed5cd40a067}, !- Handle
  Wood Siding,                            !- Name
  MediumSmooth,                           !- Roughness
  0.01,                                   !- Thickness {m}
  0.11,                                   !- Conductivity {W/m-K}
  544.62,                                 !- Density {kg/m3}
  1210,                                   !- Specific Heat {J/kg-K}
  0.9,                                    !- Thermal Absorptance
  0.78,                                   !- Solar Absorptance
  0.78;                                   !- Visible Absorptance

OS:Material,
  {5353aee6-2f18-4661-a5b2-1e749a1dc4b8}, !- Handle
  Steel Frame NonRes Wall Insulation,     !- Name
  MediumRough,                            !- Roughness
  0.0870564552646045,                     !- Thickness {m}
  0.049,                                  !- Conductivity {W/m-K}
  265,                                    !- Density {kg/m3}
  836.8,                                  !- Specific Heat {J/kg-K}
  0.9,                                    !- Thermal Absorptance
  0.7,                                    !- Solar Absorptance
  0.7;                                    !- Visible Absorptance

OS:SpaceInfiltration:DesignFlowRate,
  {0ae16ca3-3742-4b20-829a-6cc7e2fc54c5}, !- Handle
  Dining_Infiltration,                    !- Name
  {e03dbfe7-c167-47cb-8008-93d8a28ea01e}, !- Space or SpaceType Name
  {6bd65a46-2c76-460a-bf8a-a4c581250396}, !- Schedule Name
  Flow/ExteriorArea,                      !- Design Flow Rate Calculation Method
  ,                                       !- Design Flow Rate {m3/s}
  ,                                       !- Flow per Space Floor Area {m3/s-m2}
  0.000302,                               !- Flow per Exterior Surface Area {m3/s-m2}
  ,                                       !- Air Changes per Hour {1/hr}
  1,                                      !- Constant Term Coefficient
  0,                                      !- Temperature Term Coefficient
  0,                                      !- Velocity Term Coefficient
  0;                                      !- Velocity Squared Term Coefficient

OS:Schedule:Compact,
  {6bd65a46-2c76-460a-bf8a-a4c581250396}, !- Handle
  INFIL_HALF_ON_SCH,                      !- Name
  {7595d3ea-8648-4a51-a67d-5a5bc94ee24d}, !- Schedule Type Limits Name
  Through: 12/31,                         !- Field 1
  For: Weekdays SummerDesignDay,          !- Field 2
  Until: 05:00,                           !- Field 3
  1.0,                                    !- Field 4
  Until: 24:00,                           !- Field 5
  0.5,                                    !- Field 6
  For: Saturday WinterDesignDay,          !- Field 7
  Until: 05:00,                           !- Field 8
  1.0,                                    !- Field 9
  Until: 24:00,                           !- Field 10
  0.5,                                    !- Field 11
  For: Sunday Holidays AllOtherDays,      !- Field 12
  Until: 05:00,                           !- Field 13
  1.0,                                    !- Field 14
  Until: 24:00,                           !- Field 15
  0.5;                                    !- Field 16

OS:Lights:Definition,
  {eb5cced7-b779-48b2-9524-205124f2d212}, !- Handle
  Kitchen_Lights Definition,              !- Name
  Watts/Area,                             !- Design Level Calculation Method
  ,                                       !- Lighting Level {W}
  12.9,                                   !- Watts per Space Floor Area {W/m2}
  ,                                       !- Watts per Person {W/person}
  0.7,                                    !- Fraction Radiant
  0.2,                                    !- Fraction Visible
  0,                                      !- Return Air Fraction
  No;                                     !- Return Air Fraction Calculated from Plenum Temperature

OS:Lights,
  {9ad29bbb-059f-478e-a448-78835cb27f9c}, !- Handle
  Kitchen_Lights,                         !- Name
  {eb5cced7-b779-48b2-9524-205124f2d212}, !- Lights Definition Name
  {be8fff1b-c220-4c8f-97cd-fd106d7e8aa1}, !- Space or SpaceType Name
  {44e1ceef-a4cb-4806-9f95-0bb5d9912624}, !- Schedule Name
  1,                                      !- Fraction Replaceable
  ,                                       !- Multiplier
  General;                                !- End-Use Subcategory

OS:Schedule:Compact,
  {44e1ceef-a4cb-4806-9f95-0bb5d9912624}, !- Handle
  BLDG_LIGHT_SCH,                         !- Name
  {7595d3ea-8648-4a51-a67d-5a5bc94ee24d}, !- Schedule Type Limits Name
  Through: 12/31,                         !- Field 1
  For: SummerDesignDay,                   !- Field 2
  Until: 24:00,                           !- Field 3
  1.0,                                    !- Field 4
  For: WinterDesignDay,                   !- Field 5
  Until: 24:00,                           !- Field 6
  0.0,                                    !- Field 7
  For: Weekday Saturday Sunday Holidays AllOtherDays, !- Field 8
  Until: 01:00,                           !- Field 9
  0.45,                                   !- Field 10
  Until: 05:00,                           !- Field 11
  0.15,                                   !- Field 12
  Until: 06:00,                           !- Field 13
  0.45,                                   !- Field 14
  Until: 24:00,                           !- Field 15
  0.90;                                   !- Field 16

OS:Curve:Quadratic,
  {8cf0968e-8319-48b9-9118-c219bf5b94d8}, !- Handle
  Measured_CoolCStandard10Ton_CapFF,      !- Name
  0.7685,                                 !- Coefficient1 Constant
  0.2315,                                 !- Coefficient2 x
  0,                                      !- Coefficient3 x**2
  0.776,                                  !- Minimum Value of x {BasedOnField A2}
  1.197;                                  !- Maximum Value of x {BasedOnField A2}

OS:Schedule:Compact,
  {599cb569-7a69-41bf-8faf-8f3983bcb69a}, !- Handle
  Kitchen_Case:1_WALKINFREEZER_WalkInStockingSched, !- Name
  ,                                       !- Schedule Type Limits Name
  Through: 12/31,                         !- Field 1
  For: Tuesday Friday,                    !- Field 2
  Until: 4:00,                            !- Field 3
  0.0,                                    !- Field 4
  Until: 5:00,                            !- Field 5
  725.0,                                  !- Field 6
  Until: 6:00,                            !- Field 7
  417.0,                                  !- Field 8
  Until: 7:00,                            !- Field 9
  290.0,                                  !- Field 10
  Until: 24:00,                           !- Field 11
  0.0,                                    !- Field 12
  For: AllOtherDays,                      !- Field 13
  Until: 4:00,                            !- Field 14
  0.0,                                    !- Field 15
  Until: 5:00,                            !- Field 16
  125.0,                                  !- Field 17
  Until: 6:00,                            !- Field 18
  117.0,                                  !- Field 19
  Until: 7:00,                            !- Field 20
  90.0,                                   !- Field 21
  Until: 19:00,                           !- Field 22
  0.0,                                    !- Field 23
  Until: 20:00,                           !- Field 24
  125.0,                                  !- Field 25
  Until: 21:00,                           !- Field 26
  117.0,                                  !- Field 27
  Until: 22:00,                           !- Field 28
  90.0,                                   !- Field 29
  Until: 24:00,                           !- Field 30
  0.0;                                    !- Field 31

OS:ScheduleTypeLimits,
  {d64ef88b-c718-459f-bcfe-9f6b6cd90311}, !- Handle
  {6187b123-61f8-4271-a15b-40e876d40885}; !- Name

OS:Material,
  {b776e6b3-ce79-46ce-b6e0-0268efb52890}, !- Handle