
OS:Version,
  {f3345a2d-2650-44b5-bf15-66c648592180}, !- Handle
  1.3.1;                                  !- Version Identifier

OS:Construction,
  {c777de1a-996b-41c6-aff0-12a52b13994f}, !- Handle
  ASHRAE 189.1-2009 AtticFloor ClimateZone 1-8, !- Name
  {83ecbb3a-d11c-49fc-8cc1-4bfbcff9525f}, !- Surface Rendering Name
  {ddc28ac4-8397-449a-88bf-ea1ed86f5194}, !- Layer 1
  {3be67a56-aa77-4485-89c6-0c8135741e82}, !- Layer 2
  {ddc28ac4-8397-449a-88bf-ea1ed86f5194}; !- Layer 3

OS:StandardsInformation:Construction,
  {23afd823-2d02-4ffd-bd56-6f4146a24475}, !- Handle
  {c777de1a-996b-41c6-aff0-12a52b13994f}, !- Construction Name
  AtticFloor,                             !- Intended Surface Type
  WoodFramed;                             !- Standards Construction Type

OS:Material,
  {ddc28ac4-8397-449a-88bf-ea1ed86f5194}, !- Handle
  1/2IN Gypsum,                           !- Name
  Smooth,                                 !- Roughness
  0.0127,                                 !- Thickness {m}
  0.16,                                   !- Conductivity {W/m-K}
  784.9,                                  !- Density {kg/m3}
  830.000000000001,                       !- Specific Heat {J/kg-K}
  0.9,                                    !- Thermal Absorptance
  0.92,                                   !- Solar Absorptance
  0.92;                                   !- Visible Absorptance

OS:Material,
  {3be67a56-aa77-4485-89c6-0c8135741e82}, !- Handle
  AtticFloor Insulation,                  !- Name
  MediumRough,                            !- Roughness
  0.2379,                                 !- Thickness {m}
  0.049,                                  !- Conductivity {W/m-K}
  265,                                    !- Density {kg/m3}
  836.800000000001,                       !- Specific Heat {J/kg-K}
  0.9,                                    !- Thermal Absorptance
  0.7,                                    !- Solar Absorptance
  0.7;                                    !- Visible Absorptance

OS:Construction,
  {1d8c4dd5-12cd-4528-b32e-c14ce217ca2c}, !- Handle
  ASHRAE 189.1-2009 ExtRoof IEAD ClimateZone 1, !- Name
  {df8137ac-c39f-465f-97db-602681de09d9}, !- Surface Rendering Name
  {98f46ec7-89c2-4b23-b8fe-ba682add02a4}, !- Layer 1
  {5667b51a-dd50-45ab-91f6-9c2e20db559d}, !- Layer 2
  {1d7d1ce5-8154-4cd4-b2d4-4d919b111083}; !- Layer 3

OS:StandardsInformation:Construction,
  {1fe84348-522c-478b-b862-559f0ae7b0ad}, !- Handle
  {1d8c4dd5-12cd-4528-b32e-c14ce217ca2c}, !- Construction Name
  ExteriorRoof,                           !- Intended Surface Type
  IEAD;                                   !- Standards Construction Type

OS:Material,
  {98f46ec7-89c2-4b23-b8fe-ba682add02a4}, !- Handle
  Roof Membrane,                          !- Name
  VeryRough,                              !- Roughness
  0.0095,                                 !- Thickness {m}
  0.16,                                   !- Conductivity {W/m-K}
  1121.29,                                !- Density {kg/m3}
  1460,                                   !- Specific Heat {J/kg-K}
  0.9,                                    !- Thermal Absorptance
  0.7,                                    !- Solar Absorptance
  0.7;                                    !- Visible Absorptance

OS:Material,
  {5667b51a-dd50-45ab-91f6-9c2e20db559d}, !- Handle
  Roof Insulation [18],                   !- Name
  MediumRough,                            !- Roughness
  0.1693,                                 !- Thickness {m}
  0.049,                                  !- Conductivity {W/m-K}
  265,                                    !- Density {kg/m3}
  836.800000000001,                       !- Specific Heat {J/kg-K}
  0.9,                                    !- Thermal Absorptance
  0.7,                                    !- Solar Absorptance
  0.7;                                    !- Visible Absorptance

OS:Material,
  {1d7d1ce5-8154-4cd4-b2d4-4d919b111083}, !- Handle
  Metal Decking,                          !- Name
  MediumSmooth,                           !- Roughness
  0.0015,                                 !- Thickness {m}
  45.006,                                 !- Conductivity {W/m-K}
  7680,                                   !- Density {kg/m3}
  418.4,                                  !- Specific Heat {J/kg-K}
  0.9,                                    !- Thermal Absorptance
  0.7,                                    !- Solar Absorptance
  0.3;                                    !- Visible Absorptance

OS:Construction,
  {38ce6d4b-47a3-4b33-a913-caa657336249}, !- Handle
  ASHRAE 189.1-2009 ExtRoof IEAD ClimateZone 2-5, !- Name
  {6a4230e8-a3ee-4a6c-8b97-eb2f24e11e40}, !- Surface Rendering Name
  {98f46ec7-89c2-4b23-b8fe-ba682add02a4}, !- Layer 1
  {b245f7e6-371e-423c-a73f-051aa0e15add}, !- Layer 2
  {1d7d1ce5-8154-4cd4-b2d4-4d919b111083}; !- Layer 3

OS:StandardsInformation:Construction,
  {ccd1d9c1-899d-457a-9eb8-7516fc04ad24}, !- Handle
  {38ce6d4b-47a3-4b33-a913-caa657336249}, !- Construction Name
  ExteriorRoof,                           !- Intended Surface Type
  IEAD;                                   !- Standards Construction Type

OS:Material,
  {b245f7e6-371e-423c-a73f-051aa0e15add}, !- Handle
  Roof Insulation [21],                   !- Name
  MediumRough,                            !- Roughness
  0.2105,                                 !- Thickness {m}
  0.049,                                  !- Conductivity {W/m-K}
  265,                                    !- Density {kg/m3}
  836.800000000001,                       !- Specific Heat {J/kg-K}
  0.9,                                    !- Thermal Absorptance
  0.7,                                    !- Solar Absorptance
  0.7;                                    !- Visible Absorptance

OS:Construction,
  {4c13ad5b-70ae-4c8b-9796-0cad7fb48c02}, !- Handle
  ASHRAE 189.1-2009 ExtRoof IEAD ClimateZone 6, !- Name
  {0ecdcd86-27e7-4a7e-8d3e-22ba38623857}, !- Surface Rendering Name
  {98f46ec7-89c2-4b23-b8fe-ba682add02a4}, !- Layer 1
  {b0780dc7-7ca6-4cf7-9afd-6a0f7d627fb9}, !- Layer 2
  {1d7d1ce5-8154-4cd4-b2d4-4d919b111083}; !- Layer 3

OS:StandardsInformation:Construction,
  {b59b3e10-9fa6-4b70-b925-0ddebbaffc37}, !- Handle
  {4c13ad5b-70ae-4c8b-9796-0cad7fb48c02}, !- Construction Name
  ExteriorRoof,                           !- Intended Surface Type
  IEAD;                                   !- Standards Construction Type

OS:Material,
  {b0780dc7-7ca6-4cf7-9afd-6a0f7d627fb9}, !- Handle
  Roof Insulation [24],                   !- Name
  MediumRough,                            !- Roughness
  0.260100000000001,                      !- Thickness {m}
  0.049,                                  !- Conductivity {W/m-K}
  265,                                    !- Density {kg/m3}
  836.800000000001,                       !- Specific Heat {J/kg-K}
  0.9,                                    !- Thermal Absorptance
  0.7,                                    !- Solar Absorptance
  0.7;                                    !- Visible Absorptance

OS:Construction,
  {8a2277ae-c8dc-47c5-a565-e05913b79472}, !- Handle
  ASHRAE 189.1-2009 ExtRoof IEAD ClimateZone 7-8, !- Name
  {c1599a6c-5c71-4fae-a36c-678a1c215d5c}, !- Surface Rendering Name
  {98f46ec7-89c2-4b23-b8fe-ba682add02a4}, !- Layer 1
  {f3c8bbb3-5c78-4113-b7ca-42b5af70ecf4}, !- Layer 2
  {1d7d1ce5-8154-4cd4-b2d4-4d919b111083}; !- Layer 3

OS:StandardsInformation:Construction,
  {f2bf4da8-6888-4528-a501-5e063d0a550d}, !- Handle
  {8a2277ae-c8dc-47c5-a565-e05913b79472}, !- Construction Name
  ExteriorRoof,                           !- Intended Surface Type
  IEAD;                                   !- Standards Construction Type

OS:Material,
  {f3c8bbb3-5c78-4113-b7ca-42b5af70ecf4}, !- Handle
  Roof Insulation [26],                   !- Name
  MediumRough,                            !- Roughness
  0.2941,                                 !- Thickness {m}
  0.049,                                  !- Conductivity {W/m-K}
  265,                                    !- Density {kg/m3}
  836.800000000001,                       !- Specific Heat {J/kg-K}
  0.9,                                    !- Thermal Absorptance
  0.7,                                    !- Solar Absorptance
  0.7;                                    !- Visible Absorptance

OS:Construction,
  {07974579-8f4c-4a39-b307-039b6c9af144}, !- Handle
  ASHRAE 189.1-2009 ExtRoof Metal ClimateZone 1, !- Name
  {3386971d-182e-42b4-b63d-c004d681aa03}, !- Surface Rendering Name
  {bfa9c574-cab2-44fa-a534-c1ddf15f6d71}, !- Layer 1
  {c32b6219-b6d0-4899-8c89-8a553432b60f}; !- Layer 2

OS:StandardsInformation:Construction,
  {d7060c05-21b3-4961-9a43-c15d26db3be7}, !- Handle
  {07974579-8f4c-4a39-b307-039b6c9af144}, !- Construction Name
  ExteriorRoof,                           !- Intended Surface Type
  Metal;                                  !- Standards Construction Type

OS:Material,
  {bfa9c574-cab2-44fa-a534-c1ddf15f6d71}, !- Handle
  Metal Roofing,                          !- Name
  MediumSmooth,                           !- Roughness
  0.0015,                                 !- Thickness {m}
  45.006,                                 !- Conductivity {W/m-K}
  7680,                                   !- Density {kg/m3}
  418.4,                                  !- Specific Heat {J/kg-K}
  0.9,                                    !- Thermal Absorptance
  0.3,                                    !- Solar Absorptance
  0.3;                                    !- Visible Absorptance

OS:Material,
  {c32b6219-b6d0-4899-8c89-8a553432b60f}, !- Handle
  Roof Insulation [19],                   !- Name
  MediumRough,                            !- Roughness
  0.1868,                                 !- Thickness {m}
  0.049,                                  !- Conductivity {W/m-K}
  265,                                    !- Density {kg/m3}
  836.800000000001,                       !- Specific Heat {J/kg-K}
  0.9,                                    !- Thermal Absorptance
  0.7,                                    !- Solar Absorptance
  0.7;                                    !- Visible Absorptance

OS:Construction,
  {8d55953a-779e-47a7-bcc9-f4df6f7ec63e}, !- Handle
  ASHRAE 189.1-2009 ExtRoof Metal ClimateZone 2-5, !- Name
  {ae810255-8159-4b13-890c-98d7e7ac5e6f}, !- Surface Rendering Name
  {bfa9c574-cab2-44fa-a534-c1ddf15f6d71}, !- Layer 1
  {1668812c-79ec-4622-8e25-8c92246f1917}; !- Layer 2

OS:StandardsInformation:Construction,
  {6be90d1f-ec40-471f-8e77-b66ff71f281d}, !- Handle
  {8d55953a-779e-47a7-bcc9-f4df6f7ec63e}, !- Construction Name
  ExteriorRoof,                           !- Intended Surface Type
  Metal;                                  !- Standards Construction Type

OS:Material,
  {1668812c-79ec-4622-8e25-8c92246f1917}, !- Handle
  Roof Insulation [22],                   !- Name
  MediumRough,                            !- Roughness
  0.2358,                                 !- Thickness {m}
  0.049,                                  !- Conductivity {W/m-K}
  265,                                    !- Density {kg/m3}
  836.800000000001,                       !- Specific Heat {J/kg-K}
  0.9,                                    !- Thermal Absorptance
  0.7,                                    !- Solar Absorptance
  0.7;                                    !- Visible Absorptance

OS:Construction,
  {607e5d9d-fd5c-46a8-9328-16679bc45a23}, !- Handle
  ASHRAE 189.1-2009 ExtRoof Metal ClimateZone 6, !- Name
  {45313d6f-e6b0-4810-91cf-1f513daa0352}, !- Surface Rendering Name
  {bfa9c574-cab2-44fa-a534-c1ddf15f6d71}, !- Layer 1
  {e3fde635-2913-4287-8a00-65abb44bdf64}; !- Layer 2

OS:StandardsInformation:Construction,
  {ba9dd698-d597-4f8a-b053-f1c5f4750e59}, !- Handle
  {607e5d9d-fd5c-46a8-9328-16679bc45a23}, !- Construction Name
  ExteriorRoof,                           !- Intended Surface Type
  Metal;                                  !- Standards Construction Type

OS:Material,
  {e3fde635-2913-4287-8a00-65abb44bdf64}, !- Handle
  Roof Insulation [25],                   !- Name
  MediumRough,                            !- Roughness
  0.263,                                  !- Thickness {m}
  0.049,                                  !- Conductivity {W/m-K}
  265,                                    !- Density {kg/m3}
  836.800000000001,                       !- Specific Heat {J/kg-K}
  0.9,                                    !- Thermal Absorptance
  0.7,                                    !- Solar Absorptance
  0.7;                                    !- Visible Absorptance

OS:Construction,
  {3cf416bb-e5fc-4ae3-970f-53b7975b8127}, !- Handle
  ASHRAE 189.1-2009 ExtRoof Metal ClimateZone 7-8, !- Name
  {16bcc9f5-4896-448a-950d-6e062ce9af66}, !- Surface Rendering Name
  {bfa9c574-cab2-44fa-a534-c1ddf15f6d71}, !- Layer 1
  {2f608e91-94cf-411a-ac24-f1ef2977cfe6}; !- Layer 2

OS:StandardsInformation:Construction,
  {d738665d-ed5c-4cbe-aec4-aa450e18da2d}, !- Handle
  {3cf416bb-e5fc-4ae3-970f-53b7975b8127}, !- Construction Name
  ExteriorRoof,                           !- Intended Surface Type
  Metal;                                  !- Standards Construction Type

OS:Material,
  {2f608e91-94cf-411a-ac24-f1ef2977cfe6}, !- Handle
  Roof Insulation [27],                   !- Name
  MediumRough,                            !- Roughness
  0.297000000000001,                      !- Thickness {m}
  0.049,                                  !- Conductivity {W/m-K}
  265,                                    !- Density {kg/m3}
  836.800000000001,                       !- Specific Heat {J/kg-K}
  0.9,                                    !- Thermal Absorptance
  0.7,                                    !- Solar Absorptance
  0.7;                                    !- Visible Absorptance

OS:Construction,
  {2cc64c44-4a03-45ca-95c4-a921ed8c2dd8}, !- Handle
  ASHRAE 189.1-2009 ExtWall Mass ClimateZone 1, !- Name
  {6f2a3c08-ae9a-4d5a-b01b-141f0dd5a9be}, !- Surface Rendering Name
  {78bd1351-4678-4557-bde7-d42abb59f55d}, !- Layer 1
  {79c0fbb4-7432-436e-a562-fdb394041eb7}, !- Layer 2
  {46144256-de87-4716-a1a0-b383690f0278}, !- Layer 3
  {ddc28ac4-8397-449a-88bf-ea1ed86f5194}; !- Layer 4

OS:StandardsInformation:Construction,
  {48d7eb55-db41-4236-9181-36b00eadbcda}, !- Handle
  {2cc64c44-4a03-45ca-95c4-a921ed8c2dd8}, !- Construction Name
  ExteriorWall,                           !- Intended Surface Type
  Mass;                                   !- Standards Construction Type

OS:Material,
  {78bd1351-4678-4557-bde7-d42abb59f55d}, !- Handle
  1IN Stucco,                             !- Name
  Smooth,                                 !- Roughness
  0.0253,                                 !- Thickness {m}
  0.691799999999999,                      !- Conductivity {W/m-K}
  1858,                                   !- Density {kg/m3}
  836.999999999999,                       !- Specific Heat {J/kg-K}
  0.9,                                    !- Thermal Absorptance
  0.92,                                   !- Solar Absorptance
  0.92;                                   !- Visible Absorptance

OS:Material,
  {79c0fbb4-7432-436e-a562-fdb394041eb7}, !- Handle
  8IN Concrete HW,                        !- Name
  MediumRough,                            !- Roughness
  0.2033,                                 !- Thickness {m}
  1.72959999999999,                       !- Conductivity {W/m-K}
  2242.99999999999,                       !- Density {kg/m3}
  836.999999999999,                       !- Specific Heat {J/kg-K}
  0.9,                                    !- Thermal Absorptance
  0.65,                                   !- Solar Absorptance
  0.65;                                   !- Visible Absorptance

OS:Material,
  {46144256-de87-4716-a1a0-b383690f0278}, !- Handle
  Wall Insulation [31],                   !- Name
  MediumRough,                            !- Roughness
  0.0337000000000001,                     !- Thickness {m}
  0.0432,                                 !- Conductivity {W/m-K}
  91,                                     !- Density {kg/m3}
  836.999999999999,                       !- Specific Heat {J/kg-K}
  0.9,                                    !- Thermal Absorptance
  0.5,                                    !- Solar Absorptance
  0.5;                                    !- Visible Absorptance

OS:Construction,
  {dd77371b-8df6-4f5c-801e-835fd02938ca}, !- Handle
  ASHRAE 189.1-2009 ExtWall Mass ClimateZone 2, !- Name
  {72b9effd-4e48-4581-829c-c63bcf279e96}, !- Surface Rendering Name
  {78bd1351-4678-4557-bde7-d42abb59f55d}, !- Layer 1
  {79c0fbb4-7432-436e-a562-fdb394041eb7}, !- Layer 2
  {a0a4801c-dd6c-462a-a031-eee8c19bd90a}, !- Layer 3
  {ddc28ac4-8397-449a-88bf-ea1ed86f5194}; !- Layer 4

OS:StandardsInformation:Construction,
  {d7d933a6-2abb-45dc-9476-f4a178e4e589}, !- Handle
  {dd77371b-8df6-4f5c-801e-835fd02938ca}, !- Construction Name
  ExteriorWall,                           !- Intended Surface Type
  Mass;                                   !- Standards Construction Type

OS:Material,
  {a0a4801c-dd6c-462a-a031-eee8c19bd90a}, !- Handle
  Wall Insulation [35],                   !- Name
  MediumRough,                            !- Roughness
  0.0452,                                 !- Thickness {m}
  0.0432,                                 !- Conductivity {W/m-K}
  91,                                     !- Density {kg/m3}
  836.999999999999,                       !- Specific Heat {J/kg-K}
  0.9,                                    !- Thermal Absorptance
  0.5,                                    !- Solar Absorptance
  0.5;                                    !- Visible Absorptance

OS:Construction,
  {3c949bb6-cd4f-4773-90ab-631f7cc3a5f1}, !- Handle
  ASHRAE 189.1-2009 ExtWall Mass ClimateZone 3, !- Name
  {766f0bbe-1f51-4db8-98a2-eab6c45bf949}, !- Surface Rendering Name
  {78bd1351-4678-4557-bde7-d42abb59f55d}, !- Layer 1
  {79c0fbb4-7432-436e-a562-fdb394041eb7}, !- Layer 2
  {417bb4fc-c3ee-4c17-b033-801ec851cc78}, !- Layer 3
  {ddc28ac4-8397-449a-88bf-ea1ed86f5194}; !- Layer 4

OS:StandardsInformation:Construction,
  {4ef2da02-0420-4b5a-84b0-3a18d8d57f5c}, !- Handle
  {3c949bb6-cd4f-4773-90ab-631f7cc3a5f1}, !- Construction Name
  ExteriorWall,                           !- Intended Surface Type
  Mass;                                   !- Standards Construction Type

OS:Material,
  {417bb4fc-c3ee-4c17-b033-801ec851cc78}, !- Handle
  Wall Insulation [36],                   !- Name
  MediumRough,                            !- Roughness
  0.0565999999999999,                     !- Thickness {m}
  0.0432,                                 !- Conductivity {W/m-K}
  91,                                     !- Density {kg/m3}
  836.999999999999,                       !- Specific Heat {J/kg-K}
  0.9,                                    !- Thermal Absorptance
  0.5,                                    !- Solar Absorptance
  0.5;                                    !- Visible Absorptance

OS:Construction,
  {5ea3c53c-94ef-41e2-96ce-1abdba79cea1}, !- Handle
  ASHRAE 189.1-2009 ExtWall Mass ClimateZone 4, !- Name
  {e3238618-31e6-4d8c-84c9-e3f79ca908d3}, !- Surface Rendering Name
  {78bd1351-4678-4557-bde7-d42abb59f55d}, !- Layer 1
  {79c0fbb4-7432-436e-a562-fdb394041eb7}, !- Layer 2
  {b7c8cb1f-cfcd-473c-accd-c652f90f99ca}, !- Layer 3
  {ddc28ac4-8397-449a-88bf-ea1ed86f5194}; !- Layer 4

OS:StandardsInformation:Construction,
  {55ae372d-c813-4e1b-bc6e-a0116eccded5}, !- Handle
  {5ea3c53c-94ef-41e2-96ce-1abdba79cea1}, !- Construction Name
  ExteriorWall,                           !- Intended Surface Type
  Mass;                                   !- Standards Construction Type

OS:Material,
  {b7c8cb1f-cfcd-473c-accd-c652f90f99ca}, !- Handle
  Wall Insulation [37],                   !- Name
  MediumRough,                            !- Roughness
  0.0680999999999999,                     !- Thickness {m}
  0.0432,                                 !- Conductivity {W/m-K}
  91,                                     !- Density {kg/m3}
  836.999999999999,                       !- Specific Heat {J/kg-K}
  0.9,                                    !- Thermal Absorptance
  0.5,                                    !- Solar Absorptance
  0.5;                                    !- Visible Absorptance

OS:Construction,
  {7af9b7d9-7ced-4463-af2b-7d13ed93316b}, !- Handle
  ASHRAE 189.1-2009 ExtWall Mass ClimateZone 5, !- Name
  {cd5e5c21-2fd9-429f-9962-a711ba78e8ce}, !- Surface Rendering Name
  {78bd1351-4678-4557-bde7-d42abb59f55d}, !- Layer 1
  {79c0fbb4-7432-436e-a562-fdb394041eb7}, !- Layer 2
  {0a0f3ea9-a582-454f-8198-e906bd9bf4a0}, !- Layer 3
  {ddc28ac4-8397-449a-88bf-ea1ed86f5194}; !- Layer 4

OS:StandardsInformation:Construction,
  {598ad6d4-02af-46ab-9411-214faa2e3f77}, !- Handle
  {7af9b7d9-7ced-4463-af2b-7d13ed93316b}, !- Construction Name
  ExteriorWall,                           !- Intended Surface Type
  Mass;                                   !- Standards Construction Type

OS:Material,
  {0a0f3ea9-a582-454f-8198-e906bd9bf4a0}, !- Handle
  Wall Insulation [40],                   !- Name
  MediumRough,                            !- Roughness
  0.0793999999999999,                     !- Thickness {m}
  0.0432,                                 !- Conductivity {W/m-K}
  91,                                     !- Density {kg/m3}
  836.999999999999,                       !- Specific Heat {J/kg-K}
  0.9,                                    !- Thermal Absorptance
  0.5,                                    !- Solar Absorptance
  0.5;                                    !- Visible Absorptance

OS:Construction,
  {a85f0f32-8881-4259-b777-3f081b562023}, !- Handle
  ASHRAE 189.1-2009 ExtWall Mass ClimateZone 6, !- Name
  {0e4ebedd-d4cd-4f1d-876e-f01913977193}, !- Surface Rendering Name
  {78bd1351-4678-4557-bde7-d42abb59f55d}, !- Layer 1
  {79c0fbb4-7432-436e-a562-fdb394041eb7}, !- Layer 2
  {0a6a4162-f895-40e8-9aed-feb83a4b8960}, !- Layer 3
  {ddc28ac4-8397-449a-88bf-ea1ed86f5194}; !- Layer 4

OS:StandardsInformation:Construction,
  {74cdf24d-af10-46f8-a344-1df59ddd991e}, !- Handle
  {a85f0f32-8881-4259-b777-3f081b562023}, !- Construction Name
  ExteriorWall,                           !- Intended Surface Type
  Mass;                                   !- Standards Construction Type

OS:Material,
  {0a6a4162-f895-40e8-9aed-feb83a4b8960}, !- Handle
  Wall Insulation [42],                   !- Name
  MediumRough,                            !- Roughness
  0.0913999999999999,                     !- Thickness {m}
  0.0432,                                 !- Conductivity {W/m-K}
  91,                                     !- Density {kg/m3}
  836.999999999999,                       !- Specific Heat {J/kg-K}
  0.9,                                    !- Thermal Absorptance
  0.5,                                    !- Solar Absorptance
  0.5;                                    !- Visible Absorptance

OS:Construction,
  {6b5e9a1b-97ec-4afc-b814-4b6af8d60bdd}, !- Handle
  ASHRAE 189.1-2009 ExtWall Mass ClimateZone 7-8, !- Name
  {68daac7b-541f-4a4b-90dc-e82951eab02c}, !- Surface Rendering Name
  {78bd1351-4678-4557-bde7-d42abb59f55d}, !- Layer 1
  {79c0fbb4-7432-436e-a562-fdb394041eb7}, !- Layer 2
  {29160b40-c7f5-4279-9de2-48fee5605fea}, !- Layer 3
  {ddc28ac4-8397-449a-88bf-ea1ed86f5194}; !- Layer 4

OS:StandardsInformation:Construction,
  {2d974abb-26ae-4a99-bc2f-2947fe31d299}, !- Handle
  {6b5e9a1b-97ec-4afc-b814-4b6af8d60bdd}, !- Construction Name
  ExteriorWall,                           !- Intended Surface Type
  Mass;                                   !- Standards Construction Type

OS:Material,
  {29160b40-c7f5-4279-9de2-48fee5605fea}, !- Handle
  Wall Insulation [44],                   !- Name
  MediumRough,                            !- Roughness
  0.1104,                                 !- Thickness {m}
  0.0432,                                 !- Conductivity {W/m-K}
  91,                                     !- Density {kg/m3}
  836.999999999999,                       !- Specific Heat {J/kg-K}
  0.9,                                    !- Thermal Absorptance
  0.5,                                    !- Solar Absorptance
  0.5;                                    !- Visible Absorptance

OS:Construction,
  {4ceda9b6-682e-479a-a059-496c20761fb4}, !- Handle
  ASHRAE 189.1-2009 ExtWall Mass ClimateZone alt-res 1, !- Name
  {002fb205-b438-4a79-8b6f-d714c31b2497}, !- Surface Rendering Name
  {78bd1351-4678-4557-bde7-d42abb59f55d}, !- Layer 1
  {79c0fbb4-7432-436e-a562-fdb394041eb7}, !- Layer 2
  {a0a4801c-dd6c-462a-a031-eee8c19bd90a}, !- Layer 3
  {ddc28ac4-8397-449a-88bf-ea1ed86f5194}; !- Layer 4

OS:StandardsInformation:Construction,
  {bd327aed-494c-4b93-8b1c-f8d735c60025}, !- Handle
  {4ceda9b6-682e-479a-a059-496c20761fb4}, !- Construction Name
  ExteriorWall,                           !- Intended Surface Type
  Mass;                                   !- Standards Construction Type

OS:Construction,
  {8c1926e4-fc15-48ee-829d-77bea8d3443f}, !- Handle
  ASHRAE 189.1-2009 ExtWall Mass ClimateZone alt-res 2, !- Name
  {0f83ecf6-9a4a-4812-b8d3-091cc7d594a3}, !- Surface Rendering Name
  {78bd1351-4678-4557-bde7-d42abb59f55d}, !- Layer 1
  {79c0fbb4-7432-436e-a562-fdb394041eb7}, !- Layer 2
  {417bb4fc-c3ee-4c17-b033-801ec851cc78}, !- Layer 3
  {ddc28ac4-8397-449a-88bf-ea1ed86f5194}; !- Layer 4

OS:StandardsInformation:Construction,
  {cd75ee8e-ad5c-46bd-a5da-107c47142050}, !- Handle
  {8c1926e4-fc15-48ee-829d-77bea8d3443f}, !- Construction Name
  ExteriorWall,                           !- Intended Surface Type
  Mass;                                   !- Standards Construction Type

OS:Construction,
  {b36271b1-5312-48df-a246-8b83c2741dca}, !- Handle
  ASHRAE 189.1-2009 ExtWall Mass ClimateZone alt-res 3, !- Name
  {7090e3c6-02ec-41e2-9c81-59881329761c}, !- Surface Rendering Name
  {78bd1351-4678-4557-bde7-d42abb59f55d}, !- Layer 1
  {79c0fbb4-7432-436e-a562-fdb394041eb7}, !- Layer 2
  {b7c8cb1f-cfcd-473c-accd-c652f90f99ca}, !- Layer 3
  {ddc28ac4-8397-449a-88bf-ea1ed86f5194}; !- Layer 4

OS:StandardsInformation:Construction,
  {5bc6ca22-67f5-42bf-8f51-2936c250fa44}, !- Handle
  {b36271b1-5312-48df-a246-8b83c2741dca}, !- Construction Name
  ExteriorWall,                           !- Intended Surface Type
  Mass;                                   !- Standards Construction Type

OS:Construction,
  {adba0e6d-9658-433a-8d6a-ddc9e22ec729}, !- Handle
  ASHRAE 189.1-2009 ExtWall Mass ClimateZone alt-res 4, !- Name
  {06610752-6f8f-4cc6-b154-df96f0dc9c6d}, !- Surface Rendering Name
  {78bd1351-4678-4557-bde7-d42abb59f55d}, !- Layer 1
  {79c0fbb4-7432-436e-a562-fdb394041eb7}, !- Layer 2
  {0a0f3ea9-a582-454f-8198-e906bd9bf4a0}, !- Layer 3
  {ddc28ac4-8397-449a-88bf-ea1ed86f5194}; !- Layer 4

OS:StandardsInformation:Construction,
  {161bc3d5-bbb6-46cd-a324-e5ed1c6b3488}, !- Handle
  {adba0e6d-9658-433a-8d6a-ddc9e22ec729}, !- Construction Name
  ExteriorWall,                           !- Intended Surface Type
  Mass;                                   !- Standards Construction Type

OS:Construction,
  {35203a38-60c3-4f8d-ae7d-056ebcae1031}, !- Handle
  ASHRAE 189.1-2009 ExtWall Mass ClimateZone alt-res 5, !- Name
  {eeb6ca06-f732-4bf1-b8a5-5a73129e4c6e}, !- Surface Rendering Name
  {78bd1351-4678-4557-bde7-d42abb59f55d}, !- Layer 1
  {79c0fbb4-7432-436e-a562-fdb394041eb7}, !- Layer 2
  {0a6a4162-f895-40e8-9aed-feb83a4b8960}, !- Layer 3
  {ddc28ac4-8397-449a-88bf-ea1ed86f5194}; !- Layer 4

OS:StandardsInformation:Construction,
  {98253adb-562f-4f63-9e51-ab5024770c43}, !- Handle
  {35203a38-60c3-4f8d-ae7d-056ebcae1031}, !- Construction Name
  ExteriorWall,                           !- Intended Surface Type
  Mass;                                   !- Standards Construction Type

OS:Construction,
  {f5972d2c-7690-4984-88c9-a74972029912}, !- Handle
  ASHRAE 189.1-2009 ExtWall Mass ClimateZone alt-res 6, !- Name
  {e912e722-1947-4cbd-b916-71b207608e04}, !- Surface Rendering Name
  {78bd1351-4678-4557-bde7-d42abb59f55d}, !- Layer 1
  {79c0fbb4-7432-436e-a562-fdb394041eb7}, !- Layer 2
  {29160b40-c7f5-4279-9de2-48fee5605fea}, !- Layer 3
  {ddc28ac4-8397-449a-88bf-ea1ed86f5194}; !- Layer 4

OS:StandardsInformation:Construction,
  {8b154849-25d0-498a-a402-cd19901980bc}, !- Handle
  {f5972d2c-7690-4984-88c9-a74972029912}, !- Construction Name
  ExteriorWall,                           !- Intended Surface Type
  Mass;                                   !- Standards Construction Type

OS:Construction,
  {401a2592-c086-4e86-b503-e76c0ae23ed0}, !- Handle
  ASHRAE 189.1-2009 ExtWall Mass ClimateZone alt-res 7, !- Name
  {f3cb09e2-3777-4a65-80fc-7c83eec77e9f}, !- Surface Rendering Name
  {78bd1351-4678-4557-bde7-d42abb59f55d}, !- Layer 1
  {79c0fbb4-7432-436e-a562-fdb394041eb7}, !- Layer 2
  {29160b40-c7f5-4279-9de2-48fee5605fea}, !- Layer 3
  {ddc28ac4-8397-449a-88bf-ea1ed86f5194}; !- Layer 4

OS:StandardsInformation:Construction,
  {b2d8f1f9-78b3-4b2f-9d6f-4f26530be143}, !- Handle
  {401a2592-c086-4e86-b503-e76c0ae23ed0}, !- Construction Name
  ExteriorWall,                           !- Intended Surface Type
  Mass;                                   !- Standards Construction Type

OS:Construction,
  {1f5e7cfa-2d6e-4d14-aae8-1e5a2f820c27}, !- Handle
  ASHRAE 189.1-2009 ExtWall Mass ClimateZone alt-res 8, !- Name
  {5ef03520-4beb-404b-9575-6d0e89f6ad75}, !- Surface Rendering Name
  {78bd1351-4678-4557-bde7-d42abb59f55d}, !- Layer 1
  {79c0fbb4-7432-436e-a562-fdb394041eb7}, !- Layer 2
  {593d7e11-e50d-4d4b-8737-15bdd1b2a5c2}, !- Layer 3
  {ddc28ac4-8397-449a-88bf-ea1ed86f5194}; !- Layer 4

OS:StandardsInformation:Construction,
  {76c9d1ba-02a1-4f33-be57-9345b26d5b03}, !- Handle
  {1f5e7cfa-2d6e-4d14-aae8-1e5a2f820c27}, !- Construction Name
  ExteriorWall,                           !- Intended Surface Type
  Mass;                                   !- Standards Construction Type

OS:Material,
  {593d7e11-e50d-4d4b-8737-15bdd1b2a5c2}, !- Handle