
OS:Version,
  {dcd8d34b-8ae3-45ed-b6ec-104905cef66e}, !- Handle
  3.2.0;                                  !- Version Identifier

OS:Schedule:Constant,
  {b24b0333-9453-46a0-9afc-666a1a8d31b7}, !- Handle
  Always On Discrete,                     !- Name
  {a7db5cc5-c9db-4b16-9873-2439e911b4b4}, !- Schedule Type Limits Name
  1;                                      !- Value

OS:ScheduleTypeLimits,
  {a7db5cc5-c9db-4b16-9873-2439e911b4b4}, !- Handle
  Always On Discrete Limits,              !- Name
  0,                                      !- Lower Limit Value
  1,                                      !- Upper Limit Value
  Discrete,                               !- Numeric Type
  Availability;                           !- Unit Type

OS:Site,
  {faecd613-9968-425f-9fdc-e929aa68dc07}, !- Handle
  Tampa-MacDill AFB_FL_USA,               !- Name
  27.85,                                  !- Latitude {deg}
  -82.52,                                 !- Longitude {deg}
  -5,                                     !- Time Zone {hr}
  8,                                      !- Elevation {m}
  City;                                   !- Terrain

OS:SimulationControl,
  {15d51e58-1faf-4716-8aac-6c267c8c1139}, !- Handle
  Yes,                                    !- Do Zone Sizing Calculation
  Yes,                                    !- Do System Sizing Calculation
  Yes,                                    !- Do Plant Sizing Calculation
  Yes,                                    !- Run Simulation for Sizing Periods
  No,                                     !- Run Simulation for Weather File Run Periods
  0.04,                                   !- Loads Convergence Tolerance Value {W}
  0.2,                                    !- Temperature Convergence Tolerance Value {deltaC}
  FullInteriorAndExterior,                !- Solar Distribution
  25,                                     !- Maximum Number of Warmup Days
  6,                                      !- Minimum Number of Warmup Days
  Yes,                                    !- Do HVAC Sizing Simulation for Sizing Periods
  1;                                      !- Maximum Number of HVAC Sizing Simulation Passes

OS:Surface,
  {b14a540a-8ac3-4fb4-b61e-cd33f920dd35}, !- Handle
  Bathrooms_ZN_1_FLR_2_Wall_4,            !- Name
  Wall,                                   !- Surface Type
  ,                                       !- Construction Name
  {8c07a26c-759e-4a0c-be83-e179d3ff1ba1}, !- Space Name
  Outdoors,                               !- Outside Boundary Condition
  ,                                       !- Outside Boundary Condition Object
  SunExposed,                             !- Sun Exposure
  WindExposed,                            !- Wind Exposure
  ,                                       !- View Factor to Ground
  ,                                       !- Number of Vertices
  15, 14, 4,                              !- X,Y,Z Vertex 1 {m}
  15, 14, 0,                              !- X,Y,Z Vertex 2 {m}
  0, 14, 0,                               !- X,Y,Z Vertex 3 {m}
  0, 14, 4;                               !- X,Y,Z Vertex 4 {m}

OS:Connection,
  {3daf5232-c140-4073-8a54-d868ab119172}, !- Handle
  ,                                       !- Source Object
  11,                                     !- Outlet Port
  ,                                       !- Target Object
  2;                                      !- Inlet Port

OS:Space,
  {8c07a26c-759e-4a0c-be83-e179d3ff1ba1}, !- Handle
  Bathrooms_ZN_1_FLR_2,                   !- Name
  {bb27daaf-073c-4c11-b3d0-1bdd346b4e59}, !- Space Type Name
  ,                                       !- Default Construction Set Name
  ,                                       !- Default Schedule Set Name
  0,                                      !- Direction of Relative North {deg}
  64,                                     !- X Origin {m}
  90,                                     !- Y Origin {m}
  4,                                      !- Z Origin {m}
  {4d821eda-b5ee-48d5-86db-89d8b7c292a0}, !- Building Story Name
  {6a58071c-4397-432b-aa96-87399a58414f}, !- Thermal Zone Name
  Yes;                                    !- Part of Total Floor Area

OS:Surface,
  {7ef6e8c5-bf4d-4669-89e1-78154a5a9a65}, !- Handle
  Corner_Class_2_Pod_3_ZN_1_FLR_2_Wall_3, !- Name
  Wall,                                   !- Surface Type
  ,                                       !- Construction Name
  {f70833c5-e11a-4fe3-b01f-1ec1692c6820}, !- Space Name
  Outdoors,                               !- Outside Boundary Condition
  ,                                       !- Outside Boundary Condition Object
  SunExposed,                             !- Sun Exposure
  WindExposed,                            !- Wind Exposure
  ,                                       !- View Factor to Ground
  ,                                       !- Number of Vertices
  11, 9, 4,                               !- X,Y,Z Vertex 1 {m}
  11, 9, 0,                               !- X,Y,Z Vertex 2 {m}
  0, 9, 0,                                !- X,Y,Z Vertex 3 {m}
  0, 9, 4;                                !- X,Y,Z Vertex 4 {m}

OS:Connection,
  {810bbf4f-ecea-46ac-8c19-13efbf0027fd}, !- Handle
  ,                                       !- Source Object
  11,                                     !- Outlet Port
  ,                                       !- Target Object
  2;                                      !- Inlet Port

OS:Space,
  {f70833c5-e11a-4fe3-b01f-1ec1692c6820}, !- Handle
  Corner_Class_2_Pod_3_ZN_1_FLR_2,        !- Name
  {3fbc61e2-5ba2-47f6-854e-20a037673eaa}, !- Space Type Name
  ,                                       !- Default Construction Set Name
  ,                                       !- Default Schedule Set Name
  0,                                      !- Direction of Relative North {deg}
  0,                                      !- X Origin {m}
  95,                                     !- Y Origin {m}
  4,                                      !- Z Origin {m}
  {4d821eda-b5ee-48d5-86db-89d8b7c292a0}, !- Building Story Name
  {bf669db7-d82c-4872-94ea-cf4054024484}, !- Thermal Zone Name
  Yes;                                    !- Part of Total Floor Area

OS:Surface,
  {466bbd9d-853a-46c7-8656-a7cc8aa1a410}, !- Handle
  Kitchen_ZN_1_FLR_1_Floor,               !- Name
  Floor,                                  !- Surface Type
  {e545ad18-bd13-4e3e-98dd-f3da4fc8e4f7}, !- Construction Name
  {5ac31c4c-fc60-49f4-83e3-b5b17c6fe4fc}, !- Space Name
  GroundFCfactorMethod,                   !- Outside Boundary Condition
  ,                                       !- Outside Boundary Condition Object
  NoSun,                                  !- Sun Exposure
  NoWind,                                 !- Wind Exposure
  ,                                       !- View Factor to Ground
  ,                                       !- Number of Vertices
  24, 9, 0,                               !- X,Y,Z Vertex 1 {m}
  24, 0, 0,                               !- X,Y,Z Vertex 2 {m}
  0, 0, 0,                                !- X,Y,Z Vertex 3 {m}
  0, 9, 0;                                !- X,Y,Z Vertex 4 {m}

OS:Connection,
  {0d02f7c4-82e0-4566-bedf-8548fb9d79fa}, !- Handle
  ,                                       !- Source Object
  11,                                     !- Outlet Port
  ,                                       !- Target Object
  2;                                      !- Inlet Port

OS:Space,
  {5ac31c4c-fc60-49f4-83e3-b5b17c6fe4fc}, !- Handle
  Kitchen_ZN_1_FLR_1,                     !- Name
  {3c2c9bf3-6852-4456-ac7a-ecf10a342639}, !- Space Type Name
  ,                                       !- Default Construction Set Name
  ,                                       !- Default Schedule Set Name
  0,                                      !- Direction of Relative North {deg}
  117,                                    !- X Origin {m}
  66,                                     !- Y Origin {m}
  0,                                      !- Z Origin {m}
  {7706be27-4082-4c44-abfd-979f50d9e943}, !- Building Story Name
  {50a58447-062c-45cf-b031-89efa183f7c5}, !- Thermal Zone Name
  Yes;                                    !- Part of Total Floor Area

OS:Connection,
  {3c583f04-3d48-4edf-8dc0-727ec1de4fc8}, !- Handle
  ,                                       !- Source Object
  11,                                     !- Outlet Port
  ,                                       !- Target Object
  2;                                      !- Inlet Port

OS:Space,
  {ca77a65a-8c83-47b2-8f2a-9d681b5b657c}, !- Handle
  Corner_Class_1_Pod_2_ZN_1_FLR_1,        !- Name
  {3fbc61e2-5ba2-47f6-854e-20a037673eaa}, !- Space Type Name
  ,                                       !- Default Construction Set Name
  ,                                       !- Default Schedule Set Name
  0,                                      !- Direction of Relative North {deg}
  0,                                      !- X Origin {m}
  40,                                     !- Y Origin {m}
  0,                                      !- Z Origin {m}
  {7706be27-4082-4c44-abfd-979f50d9e943}, !- Building Story Name
  {2eb2d9bd-5eca-4972-ac46-6c4c4a76476f}, !- Thermal Zone Name
  Yes;                                    !- Part of Total Floor Area

OS:SubSurface,
  {46d4a197-8aa7-49f9-8cca-70373b802fb4}, !- Handle
  Gym_ZN_1_FLR_2_skylight_44,             !- Name
  Skylight,                               !- Sub Surface Type
  ,                                       !- Construction Name
  {4b4b6a4c-1a14-40ab-ad3b-d253940966b3}, !- Surface Name
  ,                                       !- Outside Boundary Condition Object
  ,                                       !- View Factor to Ground
  ,                                       !- Frame and Divider Name
  1,                                      !- Multiplier
  ,                                       !- Number of Vertices
  10.11, 42.7237, 8,                      !- X,Y,Z Vertex 1 {m}
  10.11, 43.9429, 8,                      !- X,Y,Z Vertex 2 {m}
  8.89, 43.9429, 8,                       !- X,Y,Z Vertex 3 {m}
  8.89, 42.7237, 8;                       !- X,Y,Z Vertex 4 {m}

OS:Surface,
  {4b4b6a4c-1a14-40ab-ad3b-d253940966b3}, !- Handle
  Gym_ZN_1_FLR_2_Ceiling,                 !- Name
  RoofCeiling,                            !- Surface Type
  ,                                       !- Construction Name
  {5b6d79a1-ca37-4ac2-86a5-1120aebe4e62}, !- Space Name
  Outdoors,                               !- Outside Boundary Condition
  ,                                       !- Outside Boundary Condition Object
  SunExposed,                             !- Sun Exposure
  WindExposed,                            !- Wind Exposure
  ,                                       !- View Factor to Ground
  ,                                       !- Number of Vertices
  38, 0, 8,                               !- X,Y,Z Vertex 1 {m}
  38, 52, 8,                              !- X,Y,Z Vertex 2 {m}
  0, 52, 8,                               !- X,Y,Z Vertex 3 {m}
  0, 0, 8;                                !- X,Y,Z Vertex 4 {m}

OS:Connection,
  {f6d493f2-07d8-4629-8718-f178beb56343}, !- Handle
  ,                                       !- Source Object
  11,                                     !- Outlet Port
  ,                                       !- Target Object
  2;                                      !- Inlet Port

OS:Space,
  {5b6d79a1-ca37-4ac2-86a5-1120aebe4e62}, !- Handle
  Gym_ZN_1_FLR_1,                         !- Name
  {db3daa1a-c0fd-4e0c-a447-312631139af5}, !- Space Type Name
  ,                                       !- Default Construction Set Name
  ,                                       !- Default Schedule Set Name
  0,                                      !- Direction of Relative North {deg}
  79,                                     !- X Origin {m}
  14,                                     !- Y Origin {m}
  0,                                      !- Z Origin {m}
  {7706be27-4082-4c44-abfd-979f50d9e943}, !- Building Story Name
  {45e54913-9dbf-4297-8f86-0d30facb7bbb}, !- Thermal Zone Name
  Yes;                                    !- Part of Total Floor Area

OS:SubSurface,
  {37656382-f771-4078-a8c3-6372271a9a0e}, !- Handle
  Offices_ZN_1_FLR_1_Wall_1_Window1,      !- Name
  FixedWindow,                            !- Sub Surface Type
  ,                                       !- Construction Name
  {52eeee34-1919-4eec-abc4-9285a85be0dc}, !- Surface Name
  ,                                       !- Outside Boundary Condition Object
  ,                                       !- View Factor to Ground
  ,                                       !- Frame and Divider Name
  1,                                      !- Multiplier
  ,                                       !- Number of Vertices
  0.05, 0, 2.50371,                       !- X,Y,Z Vertex 1 {m}
  0.05, 0, 1.00348,                       !- X,Y,Z Vertex 2 {m}
  11.870652, 0, 1.00348,                  !- X,Y,Z Vertex 3 {m}
  11.870652, 0, 2.50371;                  !- X,Y,Z Vertex 4 {m}

OS:SubSurface,
  {37656112-f711-4011-a1c1-6112271a9a1e}, !- Handle
  Offices_ZN_1_FLR_1_Wall_1_Window2,      !- Name
  FixedWindow,                            !- Sub Surface Type
  ,                                       !- Construction Name
  {52eeee34-1919-4eec-abc4-9285a85be0dc}, !- Surface Name
  ,                                       !- Outside Boundary Condition Object
  ,                                       !- View Factor to Ground
  ,                                       !- Frame and Divider Name
  1,                                      !- Multiplier
  ,                                       !- Number of Vertices
  13.089852, 0, 2.50371,                  !- X,Y,Z Vertex 1 {m}
  13.089852, 0, 1.00348,                  !- X,Y,Z Vertex 2 {m}
  24.910504, 0, 1.00348,                  !- X,Y,Z Vertex 3 {m}
  24.910504, 0, 2.50371;                  !- X,Y,Z Vertex 4 {m}

OS:SubSurface,
  {33246382-f741-4478-a5c3-6355571a9a0e}, !- Handle
  Offices_ZN_1_FLR_1_Wall_1_Window3,      !- Name
  FixedWindow,                            !- Sub Surface Type
  ,                                       !- Construction Name
  {52eeee34-1919-4eec-abc4-9285a85be0dc}, !- Surface Name
  ,                                       !- Outside Boundary Condition Object
  ,                                       !- View Factor to Ground
  ,                                       !- Frame and Divider Name
  1,                                      !- Multiplier
  ,                                       !- Number of Vertices
  26.129704, 0, 2.50371,                  !- X,Y,Z Vertex 1 {m}
  26.129704, 0, 1.00348,                  !- X,Y,Z Vertex 2 {m}
  37.95, 0, 1.00348,                      !- X,Y,Z Vertex 3 {m}
  37.95, 0, 2.50371;                      !- X,Y,Z Vertex 4 {m}

OS:Surface,
  {52eeee34-1919-4eec-abc4-9285a85be0dc}, !- Handle
  Offices_ZN_1_FLR_1_Wall_1,              !- Name
  Wall,                                   !- Surface Type
  ,                                       !- Construction Name
  {07897017-2f7d-4da1-85cc-9c9ec7088e51}, !- Space Name
  Outdoors,                               !- Outside Boundary Condition
  ,                                       !- Outside Boundary Condition Object
  SunExposed,                             !- Sun Exposure
  WindExposed,                            !- Wind Exposure
  ,                                       !- View Factor to Ground
  ,                                       !- Number of Vertices
  0, 0, 4,                                !- X,Y,Z Vertex 1 {m}
  0, 0, 0,                                !- X,Y,Z Vertex 2 {m}
  38, 0, 0,                               !- X,Y,Z Vertex 3 {m}
  38, 0, 4;                               !- X,Y,Z Vertex 4 {m}

OS:Connection,
  {c28987b0-2c44-497e-bf5c-424849135b68}, !- Handle
  ,                                       !- Source Object
  11,                                     !- Outlet Port
  ,                                       !- Target Object
  2;                                      !- Inlet Port

OS:Space,
  {07897017-2f7d-4da1-85cc-9c9ec7088e51}, !- Handle
  Offices_ZN_1_FLR_1,                     !- Name
  {05b553fe-6c22-4921-8324-7c516c72963c}, !- Space Type Name
  ,                                       !- Default Construction Set Name
  ,                                       !- Default Schedule Set Name
  0,                                      !- Direction of Relative North {deg}
  79,                                     !- X Origin {m}
  0,                                      !- Y Origin {m}
  0,                                      !- Z Origin {m}
  {7706be27-4082-4c44-abfd-979f50d9e943}, !- Building Story Name
  {bf69a0af-85d7-4a4a-b7f8-2892fa2bb34a}, !- Thermal Zone Name
  Yes;                                    !- Part of Total Floor Area

OS:Surface,
  {a82b9ed5-c277-43fb-abe1-8881e66e7591}, !- Handle
  Corridor_Pod_1_ZN_1_FLR_2_Wall_6,       !- Name
  Wall,                                   !- Surface Type
  ,                                       !- Construction Name
  {98a24e6c-59af-448d-bf56-daadacedc0c5}, !- Space Name
  Outdoors,                               !- Outside Boundary Condition
  ,                                       !- Outside Boundary Condition Object
  SunExposed,                             !- Sun Exposure
  WindExposed,                            !- Wind Exposure
  ,                                       !- View Factor to Ground
  ,                                       !- Number of Vertices
  0, 5, 4,                                !- X,Y,Z Vertex 1 {m}
  0, 5, 0,                                !- X,Y,Z Vertex 2 {m}
  0, 0, 0,                                !- X,Y,Z Vertex 3 {m}
  0, 0, 4;                                !- X,Y,Z Vertex 4 {m}

OS:Connection,
  {25d6007f-cdcd-4f8e-ad3d-e752156c3b7c}, !- Handle
  ,                                       !- Source Object
  11,                                     !- Outlet Port
  ,                                       !- Target Object
  2;                                      !- Inlet Port

OS:Space,
  {98a24e6c-59af-448d-bf56-daadacedc0c5}, !- Handle
  Corridor_Pod_1_ZN_1_FLR_2,              !- Name
  {f81cba6e-f55f-464d-b4db-1425b2ca93b7}, !- Space Type Name
  ,                                       !- Default Construction Set Name
  ,                                       !- Default Schedule Set Name
  0,                                      !- Direction of Relative North {deg}
  0,                                      !- X Origin {m}
  9,                                      !- Y Origin {m}
  4,                                      !- Z Origin {m}
  {4d821eda-b5ee-48d5-86db-89d8b7c292a0}, !- Building Story Name
  {33d76f33-1ef1-40d0-a983-6dd135b17fdc}, !- Thermal Zone Name
  Yes;                                    !- Part of Total Floor Area

OS:Surface,
  {c1818fb5-6767-489e-b5b5-e765a5cf5ae2}, !- Handle
  Auditorium_ZN_1_FLR_2_Wall_2,           !- Name
  Wall,                                   !- Surface Type
  ,                                       !- Construction Name
  {9afb3bcc-f466-426d-84be-d73696352d8a}, !- Space Name
  Surface,                                !- Outside Boundary Condition
  {5cb2bea6-af2a-4351-9f64-e14feb99ded8}, !- Outside Boundary Condition Object
  NoSun,                                  !- Sun Exposure
  NoWind,                                 !- Wind Exposure
  ,                                       !- View Factor to Ground
  ,                                       !- Number of Vertices
  38, 0, 8,                               !- X,Y,Z Vertex 1 {m}
  38, 0, 4,                               !- X,Y,Z Vertex 2 {m}
  38, 26, 4,                              !- X,Y,Z Vertex 3 {m}
  38, 26, 8;                              !- X,Y,Z Vertex 4 {m}

OS:Connection,
  {8396b6b9-90e6-4144-bc44-e3d23597515e}, !- Handle
  ,                                       !- Source Object
  11,                                     !- Outlet Port
  ,                                       !- Target Object
  2;                                      !- Inlet Port

OS:Space,
  {9afb3bcc-f466-426d-84be-d73696352d8a}, !- Handle
  Auditorium_ZN_1_FLR_1,                  !- Name
  {741a6d56-630f-4617-b7de-06f2490afcc7}, !- Space Type Name
  ,                                       !- Default Construction Set Name
  ,                                       !- Default Schedule Set Name
  0,                                      !- Direction of Relative North {deg}
  79,                                     !- X Origin {m}
  75,                                     !- Y Origin {m}
  0,                                      !- Z Origin {m}
  {7706be27-4082-4c44-abfd-979f50d9e943}, !- Building Story Name
  {3b5d597d-7d51-434f-a7b8-61ea75120de0}, !- Thermal Zone Name
  Yes;                                    !- Part of Total Floor Area

OS:Connection,
  {2b0117e1-369f-4c23-b973-5471faf8eb55}, !- Handle
  ,                                       !- Source Object
  11,                                     !- Outlet Port
  ,                                       !- Target Object
  2;                                      !- Inlet Port

OS:Space,
  {9642778a-9cfa-4d96-a768-710240677291}, !- Handle
  LIBRARY_MEDIA_CENTER_ZN_1_FLR_2,        !- Name
  {0470cc4e-eb57-47de-8d7f-9d4027e16b92}, !- Space Type Name
  ,                                       !- Default Construction Set Name
  ,                                       !- Default Schedule Set Name
  0,                                      !- Direction of Relative North {deg}
  117,                                    !- X Origin {m}
  66,                                     !- Y Origin {m}
  4,                                      !- Z Origin {m}
  {4d821eda-b5ee-48d5-86db-89d8b7c292a0}, !- Building Story Name
  {a2e623af-86c5-4db2-9fd8-d28d54794c23}, !- Thermal Zone Name
  Yes;                                    !- Part of Total Floor Area

OS:Surface,
  {b3ccb0a3-6522-43bb-87b1-1127ff5bdecf}, !- Handle
  Mult_Class_2_Pod_2_ZN_1_FLR_1_Wall_3,   !- Name
  Wall,                                   !- Surface Type
  ,                                       !- Construction Name
  {8b1f8f19-8d7c-433c-9ecc-bfb247b3b7d4}, !- Space Name
  Outdoors,                               !- Outside Boundary Condition
  ,                                       !- Outside Boundary Condition Object
  SunExposed,                             !- Sun Exposure
  WindExposed,                            !- Wind Exposure
  ,                                       !- View Factor to Ground
  ,                                       !- Number of Vertices
  53, 9, 4,                               !- X,Y,Z Vertex 1 {m}
  53, 9, 0,                               !- X,Y,Z Vertex 2 {m}
  0, 9, 0,                                !- X,Y,Z Vertex 3 {m}
  0, 9, 4;                                !- X,Y,Z Vertex 4 {m}

OS:Connection,
  {37b79caf-b484-4158-9ca9-8e009289efbf}, !- Handle
  ,                                       !- Source Object
  11,                                     !- Outlet Port
  ,                                       !- Target Object
  2;                                      !- Inlet Port

OS:Space,
  {8b1f8f19-8d7c-433c-9ecc-bfb247b3b7d4}, !- Handle
  Mult_Class_2_Pod_2_ZN_1_FLR_1,          !- Name
  {3fbc61e2-5ba2-47f6-854e-20a037673eaa}, !- Space Type Name
  ,                                       !- Default Construction Set Name
  ,                                       !- Default Schedule Set Name
  0,                                      !- Direction of Relative North {deg}
  11,                                     !- X Origin {m}
  54,                                     !- Y Origin {m}
  0,                                      !- Z Origin {m}
  {7706be27-4082-4c44-abfd-979f50d9e943}, !- Building Story Name
  {d5c253a2-f1fb-4d3f-987b-a379dc34d752}, !- Thermal Zone Name
  Yes;                                    !- Part of Total Floor Area

OS:Surface,
  {35611eec-683e-4c41-a585-bb48caa0a1ed}, !- Handle
  Corridor_Pod_1_ZN_1_FLR_2_Wall_1,       !- Name
  Wall,                                   !- Surface Type
  ,                                       !- Construction Name
  {98a24e6c-59af-448d-bf56-daadacedc0c5}, !- Space Name
  Surface,                                !- Outside Boundary Condition
  {e256f2a1-a05c-4d15-a632-bbce1c1f6e05}, !- Outside Boundary Condition Object
  NoSun,                                  !- Sun Exposure
  NoWind,                                 !- Wind Exposure
  ,                                       !- View Factor to Ground
  ,                                       !- Number of Vertices
  0, 0, 4,                                !- X,Y,Z Vertex 1 {m}
  0, 0, 0,                                !- X,Y,Z Vertex 2 {m}
  11, 0, 0,                               !- X,Y,Z Vertex 3 {m}
  11, 0, 4;                               !- X,Y,Z Vertex 4 {m}

OS:SubSurface,
  {db357969-fe3d-484b-be80-38e71946881a}, !- Handle
  Aux_Gym_ZN_1_FLR_2_skylight_25,         !- Name
  Skylight,                               !- Sub Surface Type
  ,                                       !- Construction Name
  {89fd87b6-ce0e-4e53-82e1-edc9a39bf1aa}, !- Surface Name
  ,                                       !- Outside Boundary Condition Object
  ,                                       !- View Factor to Ground
  ,                                       !- Frame and Divider Name
  1,                                      !- Multiplier
  ,                                       !- Number of Vertices
  3.61, 36.946, 8,                        !- X,Y,Z Vertex 1 {m}
  3.61, 38.1652, 8,                       !- X,Y,Z Vertex 2 {m}
  2.39, 38.1652, 8,                       !- X,Y,Z Vertex 3 {m}
  2.39, 36.946, 8;                        !- X,Y,Z Vertex 4 {m}

OS:Surface,
  {89fd87b6-ce0e-4e53-82e1-edc9a39bf1aa}, !- Handle
  Aux_Gym_ZN_1_FLR_2_Ceiling,             !- Name
  RoofCeiling,                            !- Surface Type
  ,                                       !- Construction Name
  {8e6e73b2-43d7-4a77-a53a-c3b09d195d59}, !- Space Name
  Outdoors,                               !- Outside Boundary Condition
  ,                                       !- Outside Boundary Condition Object
  SunExposed,                             !- Sun Exposure
  WindExposed,                            !- Wind Exposure
  ,                                       !- View Factor to Ground
  ,                                       !- Number of Vertices
  24, 0, 8,                               !- X,Y,Z Vertex 1 {m}
  24, 52, 8,                              !- X,Y,Z Vertex 2 {m}
  0, 52, 8,                               !- X,Y,Z Vertex 3 {m}
  0, 0, 8;                                !- X,Y,Z Vertex 4 {m}

OS:Connection,
  {25e988c3-0a48-4ba9-a6af-150e7f60c727}, !- Handle
  ,                                       !- Source Object
  11,                                     !- Outlet Port
  ,                                       !- Target Object
  2;                                      !- Inlet Port

OS:Space,
  {8e6e73b2-43d7-4a77-a53a-c3b09d195d59}, !- Handle
  Aux_Gym_ZN_1_FLR_1,                     !- Name
  {db3daa1a-c0fd-4e0c-a447-312631139af5}, !- Space Type Name
  ,                                       !- Default Construction Set Name
  ,                                       !- Default Schedule Set Name
  0,                                      !- Direction of Relative North {deg}
  117,                                    !- X Origin {m}
  14,                                     !- Y Origin {m}
  0,                                      !- Z Origin {m}
  {7706be27-4082-4c44-abfd-979f50d9e943}, !- Building Story Name
  {1eaaa7a7-92a5-43fd-8c5a-f80c7a3e31bf}, !- Thermal Zone Name
  Yes;                                    !- Part of Total Floor Area

OS:Connection,
  {3cc4e9d4-ca63-462c-905c-d275a786593c}, !- Handle
  ,                                       !- Source Object
  11,                                     !- Outlet Port
  ,                                       !- Target Object
  2;                                      !- Inlet Port

OS:Space,
  {b6c86a90-edfc-4e71-b6f9-346cd0a38717}, !- Handle
  Mult_Class_1_Pod_2_ZN_1_FLR_1,          !- Name
  {3fbc61e2-5ba2-47f6-854e-20a037673eaa}, !- Space Type Name
  ,                                       !- Default Construction Set Name
  ,                                       !- Default Schedule Set Name
  0,                                      !- Direction of Relative North {deg}
  11,                                     !- X Origin {m}
  40,                                     !- Y Origin {m}
  0,                                      !- Z Origin {m}
  {7706be27-4082-4c44-abfd-979f50d9e943}, !- Building Story Name
  {67451b90-f609-4440-a5ba-96c3dc525f27}, !- Thermal Zone Name
  Yes;                                    !- Part of Total Floor Area

OS:Connection,
  {8dab90fd-8296-4c8c-8629-dc48fda4b6dc}, !- Handle
  ,                                       !- Source Object
  11,                                     !- Outlet Port
  ,                                       !- Target Object
  2;                                      !- Inlet Port

OS:Space,
  {dda8118e-5bf7-4453-bed7-34efb3eb3a63}, !- Handle
  Mult_Class_1_Pod_3_ZN_1_FLR_2,          !- Name
  {c73772b8-aa19-4b80-ab3c-a8d3178978d0}, !- Space Type Name
  ,                                       !- Default Construction Set Name
  ,                                       !- Default Schedule Set Name
  0,                                      !- Direction of Relative North {deg}
  11,                                     !- X Origin {m}
  81,                                     !- Y Origin {m}
  4,                                      !- Z Origin {m}
  {4d821eda-b5ee-48d5-86db-89d8b7c292a0}, !- Building Story Name
  {1ab5d422-1579-4fac-b341-debb2514fc9b}, !- Thermal Zone Name