
OS:Version,
  {018fd8db-691c-4b40-9896-672d7b8b33e5}, !- Handle
  2.1.1;                                  !- Version Identifier

OS:Rendering:Color,
  {fb750593-2948-41c8-af9f-b38138b5858d}, !- Handle
  Rendering Color 1,                      !- Name
  230,                                    !- Rendering Red Value
  196,                                    !- Rendering Green Value
  120;                                    !- Rendering Blue Value

OS:Rendering:Color,
  {d37fcfcd-d797-402b-b38d-b30d649db532}, !- Handle
  Rendering Color 2,                      !- Name
  31,                                     !- Rendering Red Value
  169,                                    !- Rendering Green Value
  34;                                     !- Rendering Blue Value

OS:Rendering:Color,
  {50c8c459-5d81-4052-beea-d313311afc95}, !- Handle
  Rendering Color 3,                      !- Name
  169,                                    !- Rendering Red Value
  31,                                     !- Rendering Green Value
  31;                                     !- Rendering Blue Value

OS:Rendering:Color,
  {00cbf8b5-8b46-4477-ad94-44493d19d9a4}, !- Handle
  Rendering Color 4,                      !- Name
  78,                                     !- Rendering Red Value
  167,                                    !- Rendering Green Value
  222;                                    !- Rendering Blue Value

OS:Rendering:Color,
  {5d179c05-5e8f-4445-990f-ee670e34d821}, !- Handle
  Rendering Color 5,                      !- Name
  78,                                     !- Rendering Red Value
  222,                                    !- Rendering Green Value
  133;                                    !- Rendering Blue Value

OS:Rendering:Color,
  {9e829ed5-d075-428d-81e1-d8168c8132a1}, !- Handle
  Rendering Color 6,                      !- Name
  120,                                    !- Rendering Red Value
  149,                                    !- Rendering Green Value
  230;                                    !- Rendering Blue Value

OS:Rendering:Color,
  {04d9370e-9dc3-4475-ba7d-1e0f4fb46d7f}, !- Handle
  Rendering Color 7,                      !- Name
  230,                                    !- Rendering Red Value
  157,                                    !- Rendering Green Value
  120;                                    !- Rendering Blue Value

OS:Rendering:Color,
  {8596e9da-10d9-4279-abd9-28bb4ddb9498}, !- Handle
  Rendering Color 8,                      !- Name
  41,                                     !- Rendering Red Value
  31,                                     !- Rendering Green Value
  169;                                    !- Rendering Blue Value

OS:Rendering:Color,
  {9d4c6ac6-1058-4512-bcc0-da35d8a4beb8}, !- Handle
  Rendering Color 9,                      !- Name
  171,                                    !- Rendering Red Value
  222,                                    !- Rendering Green Value
  78;                                     !- Rendering Blue Value

OS:Rendering:Color,
  {2045270d-4e28-41cf-9e6f-3c66e7b38f03}, !- Handle
  Rendering Color 10,                     !- Name
  120,                                    !- Rendering Red Value
  149,                                    !- Rendering Green Value
  230;                                    !- Rendering Blue Value

OS:Rendering:Color,
  {6d18142b-3895-4dde-b206-cab7c2c722a4}, !- Handle
  Rendering Color 11,                     !- Name
  31,                                     !- Rendering Red Value
  169,                                    !- Rendering Green Value
  34;                                     !- Rendering Blue Value

OS:Rendering:Color,
  {54ea2725-7109-4140-8866-4776626aa7ef}, !- Handle
  Rendering Color 12,                     !- Name
  78,                                     !- Rendering Red Value
  222,                                    !- Rendering Green Value
  133;                                    !- Rendering Blue Value

OS:Building,
  {0ed40cbd-7a45-458a-8f8e-6c5a39bfcfe6}, !- Handle
  90.1-2004|LargeHotel|FullServiceRestaurant, !- Name
  ,                                       !- Building Sector Type
  ,                                       !- North Axis {deg}
  ,                                       !- Nominal Floor to Floor Height {m}
  ,                                       !- Space Type Name
  {96b72031-7dd5-478a-bbb3-b5846f0df019}, !- Default Construction Set Name
  ,                                       !- Default Schedule Set Name
  ,                                       !- Standards Number of Stories
  ,                                       !- Standards Number of Above Ground Stories
  LargeHotel;                             !- Standards Building Type

OS:Site,
  {166eaa3c-57e7-45c3-95dc-235898ea1982}, !- Handle
  Site 1,                                 !- Name
  ,                                       !- Latitude {deg}
  ,                                       !- Longitude {deg}
  ,                                       !- Time Zone {hr}
  ,                                       !- Elevation {m}
  ;                                       !- Terrain

OS:BuildingStory,
  {1948d7b8-a8e8-47fb-aaaf-6f06567bae42}, !- Handle
  Story Ground,                           !- Name
  ,                                       !- Nominal Z Coordinate {m}
  3.048,                                  !- Nominal Floor to Floor Height {m}
  ,                                       !- Default Construction Set Name
  ,                                       !- Default Schedule Set Name
  ;                                       !- Group Rendering Name

OS:Space,
  {f0708a40-f877-4c01-a95f-5174d3e0bc99}, !- Handle
  FullServiceRestaurant Kitchen A end_a - Story Ground, !- Name
  {21320a83-e8c1-4843-b03f-a268049ff1fb}, !- Space Type Name
  ,                                       !- Default Construction Set Name
  ,                                       !- Default Schedule Set Name
  -0,                                     !- Direction of Relative North {deg}
  -24.0965557704831,                      !- X Origin {m}
  -12.0482778852415,                      !- Y Origin {m}
  0,                                      !- Z Origin {m}
  {1948d7b8-a8e8-47fb-aaaf-6f06567bae42}, !- Building Story Name
  {014d7b88-0570-4292-8837-bb8faf2e171b}; !- Thermal Zone Name

OS:Surface,
  {6415d973-5748-458e-9487-6ca2f005e6d0}, !- Handle
  Surface 1,                              !- Name
  Floor,                                  !- Surface Type
  ,                                       !- Construction Name
  {f0708a40-f877-4c01-a95f-5174d3e0bc99}, !- Space Name
  Ground,                                 !- Outside Boundary Condition
  ,                                       !- Outside Boundary Condition Object
  NoSun,                                  !- Sun Exposure
  NoWind,                                 !- Wind Exposure
  ,                                       !- View Factor to Ground
  ,                                       !- Number of Vertices
  -4.9737991503207e-14, 2.48689957516035e-14, 0, !- X,Y,Z Vertex 1 {m}
  -4.9737991503207e-14, 4.57199999999999, 0, !- X,Y,Z Vertex 2 {m}
  4.57199999999995, 4.57199999999999, 0,  !- X,Y,Z Vertex 3 {m}
  4.57199999999995, 2.48689957516035e-14, 0; !- X,Y,Z Vertex 4 {m}

OS:Surface,
  {fc4c3866-5c2e-474a-9d2a-01afdd6de3ba}, !- Handle
  Surface 2,                              !- Name
  Wall,                                   !- Surface Type
  ,                                       !- Construction Name
  {f0708a40-f877-4c01-a95f-5174d3e0bc99}, !- Space Name
  Outdoors,                               !- Outside Boundary Condition
  ,                                       !- Outside Boundary Condition Object
  SunExposed,                             !- Sun Exposure
  WindExposed,                            !- Wind Exposure
  ,                                       !- View Factor to Ground
  ,                                       !- Number of Vertices
  -4.9737991503207e-14, 4.57199999999999, 3.048, !- X,Y,Z Vertex 1 {m}
  -4.9737991503207e-14, 4.57199999999999, 0, !- X,Y,Z Vertex 2 {m}
  -4.9737991503207e-14, 2.48689957516035e-14, 0, !- X,Y,Z Vertex 3 {m}
  -4.9737991503207e-14, 2.48689957516035e-14, 3.048; !- X,Y,Z Vertex 4 {m}

OS:Surface,
  {1d2f1c83-0ced-40e0-b0a9-abc6cf4e0601}, !- Handle
  Surface 3,                              !- Name
  Wall,                                   !- Surface Type
  ,                                       !- Construction Name
  {f0708a40-f877-4c01-a95f-5174d3e0bc99}, !- Space Name
  Surface,                                !- Outside Boundary Condition
  {96ed5c96-c932-4374-b1b9-3331f037bd02}, !- Outside Boundary Condition Object
  NoSun,                                  !- Sun Exposure
  NoWind,                                 !- Wind Exposure
  ,                                       !- View Factor to Ground
  ,                                       !- Number of Vertices
  4.57199999999995, 4.57199999999999, 3.048, !- X,Y,Z Vertex 1 {m}
  4.57199999999995, 4.57199999999999, 0,  !- X,Y,Z Vertex 2 {m}
  -4.9737991503207e-14, 4.57199999999999, 0, !- X,Y,Z Vertex 3 {m}
  -4.9737991503207e-14, 4.57199999999999, 3.048; !- X,Y,Z Vertex 4 {m}

OS:Surface,
  {09d05082-5bfd-42d7-9c53-c5c94f5c18ca}, !- Handle
  Surface 4,                              !- Name
  Wall,                                   !- Surface Type
  ,                                       !- Construction Name
  {f0708a40-f877-4c01-a95f-5174d3e0bc99}, !- Space Name
  Surface,                                !- Outside Boundary Condition
  {8655685a-c073-4e02-a836-84538cc4f0f4}, !- Outside Boundary Condition Object
  NoSun,                                  !- Sun Exposure
  NoWind,                                 !- Wind Exposure
  ,                                       !- View Factor to Ground
  ,                                       !- Number of Vertices
  4.57199999999995, 2.48689957516035e-14, 3.048, !- X,Y,Z Vertex 1 {m}
  4.57199999999995, 2.48689957516035e-14, 0, !- X,Y,Z Vertex 2 {m}
  4.57199999999995, 4.57199999999999, 0,  !- X,Y,Z Vertex 3 {m}
  4.57199999999995, 4.57199999999999, 3.048; !- X,Y,Z Vertex 4 {m}

OS:Surface,
  {4ab4f1a5-4efa-47b5-ae8f-77b349b594f4}, !- Handle
  Surface 5,                              !- Name
  Wall,                                   !- Surface Type
  ,                                       !- Construction Name
  {f0708a40-f877-4c01-a95f-5174d3e0bc99}, !- Space Name
  Outdoors,                               !- Outside Boundary Condition
  ,                                       !- Outside Boundary Condition Object
  SunExposed,                             !- Sun Exposure
  WindExposed,                            !- Wind Exposure
  ,                                       !- View Factor to Ground
  ,                                       !- Number of Vertices
  -4.9737991503207e-14, 2.48689957516035e-14, 3.048, !- X,Y,Z Vertex 1 {m}
  -4.9737991503207e-14, 2.48689957516035e-14, 0, !- X,Y,Z Vertex 2 {m}
  4.57199999999995, 2.48689957516035e-14, 0, !- X,Y,Z Vertex 3 {m}
  4.57199999999995, 2.48689957516035e-14, 3.048; !- X,Y,Z Vertex 4 {m}

OS:Surface,
  {c40c5ec1-9b4f-4d2b-9819-4a55cf453d9f}, !- Handle
  Surface 6,                              !- Name
  RoofCeiling,                            !- Surface Type
  {ed4fa71d-e199-4a78-a47e-3c7df30f4360}, !- Construction Name
  {f0708a40-f877-4c01-a95f-5174d3e0bc99}, !- Space Name
  Adiabatic,                              !- Outside Boundary Condition
  ,                                       !- Outside Boundary Condition Object
  NoSun,                                  !- Sun Exposure
  NoWind,                                 !- Wind Exposure
  ,                                       !- View Factor to Ground
  ,                                       !- Number of Vertices
  4.57199999999995, 2.48689957516035e-14, 3.048, !- X,Y,Z Vertex 1 {m}
  4.57199999999995, 4.57199999999999, 3.048, !- X,Y,Z Vertex 2 {m}
  -4.9737991503207e-14, 4.57199999999999, 3.048, !- X,Y,Z Vertex 3 {m}
  -4.9737991503207e-14, 2.48689957516035e-14, 3.048; !- X,Y,Z Vertex 4 {m}

OS:ThermalZone,
  {014d7b88-0570-4292-8837-bb8faf2e171b}, !- Handle
  Zone FullServiceRestaurant Kitchen A end_a - Story Ground, !- Name
  1,                                      !- Multiplier
  ,                                       !- Ceiling Height {m}
  ,                                       !- Volume {m3}
  ,                                       !- Floor Area {m2}
  ,                                       !- Zone Inside Convection Algorithm
  ,                                       !- Zone Outside Convection Algorithm
  ,                                       !- Zone Conditioning Equipment List Name
  {04aef700-f701-4d5f-b778-09c2a830fd16}, !- Zone Air Inlet Port List
  {0cfd451b-cca9-4b4c-b242-f4ae2a88f950}, !- Zone Air Exhaust Port List
  {7a733436-33a6-45f6-b8e4-888f2542d174}, !- Zone Air Node Name
  ,                                       !- Zone Return Air Node Name
  ,                                       !- Primary Daylighting Control Name
  ,                                       !- Fraction of Zone Controlled by Primary Daylighting Control
  ,                                       !- Secondary Daylighting Control Name
  ,                                       !- Fraction of Zone Controlled by Secondary Daylighting Control
  ,                                       !- Illuminance Map Name
  ,                                       !- Group Rendering Name
  {f4ebb7d9-97a7-475b-a876-3437e7dbdb3e}, !- Thermostat Name
  No;                                     !- Use Ideal Air Loads

OS:Node,
  {5627479e-e2d4-44da-8320-f708807cfb4f}, !- Handle
  Node 1,                                 !- Name
  {7a733436-33a6-45f6-b8e4-888f2542d174}, !- Inlet Port
  ;                                       !- Outlet Port

OS:Connection,
  {7a733436-33a6-45f6-b8e4-888f2542d174}, !- Handle
  {77d7e23e-838d-4210-a9b2-4a22291f8a55}, !- Name
  {014d7b88-0570-4292-8837-bb8faf2e171b}, !- Source Object
  11,                                     !- Outlet Port
  {5627479e-e2d4-44da-8320-f708807cfb4f}, !- Target Object
  2;                                      !- Inlet Port

OS:PortList,
  {04aef700-f701-4d5f-b778-09c2a830fd16}, !- Handle
  Port List 1,                            !- Name
  {014d7b88-0570-4292-8837-bb8faf2e171b}, !- HVAC Component
  {b31992fd-24a7-4d03-89f0-49badb2fe37b}; !- Port 1

OS:PortList,
  {0cfd451b-cca9-4b4c-b242-f4ae2a88f950}, !- Handle
  Port List 2,                            !- Name
  {014d7b88-0570-4292-8837-bb8faf2e171b}, !- HVAC Component
  {102a788f-1af9-4d67-bbf1-649fc5bca02d}, !- Port 1
  {ec976ce5-7b47-4cc9-af35-bf836856e9b1}; !- Port 2

OS:Sizing:Zone,
  {8cf7d75d-b44f-4436-8d04-feea6c5f41c4}, !- Handle
  {014d7b88-0570-4292-8837-bb8faf2e171b}, !- Zone or ZoneList Name
  SupplyAirTemperature,                   !- Zone Cooling Design Supply Air Temperature Input Method
  14,                                     !- Zone Cooling Design Supply Air Temperature {C}
  11.11,                                  !- Zone Cooling Design Supply Air Temperature Difference {deltaC}
  SupplyAirTemperature,                   !- Zone Heating Design Supply Air Temperature Input Method
  40,                                     !- Zone Heating Design Supply Air Temperature {C}
  11.11,                                  !- Zone Heating Design Supply Air Temperature Difference {deltaC}
  0.0085,                                 !- Zone Cooling Design Supply Air Humidity Ratio {kg-H2O/kg-air}
  0.008,                                  !- Zone Heating Design Supply Air Humidity Ratio {kg-H2O/kg-air}
  ,                                       !- Zone Heating Sizing Factor
  ,                                       !- Zone Cooling Sizing Factor
  DesignDay,                              !- Cooling Design Air Flow Method
  ,                                       !- Cooling Design Air Flow Rate {m3/s}
  ,                                       !- Cooling Minimum Air Flow per Zone Floor Area {m3/s-m2}
  ,                                       !- Cooling Minimum Air Flow {m3/s}
  ,                                       !- Cooling Minimum Air Flow Fraction
  DesignDay,                              !- Heating Design Air Flow Method
  ,                                       !- Heating Design Air Flow Rate {m3/s}
  ,                                       !- Heating Maximum Air Flow per Zone Floor Area {m3/s-m2}
  ,                                       !- Heating Maximum Air Flow {m3/s}
  ,                                       !- Heating Maximum Air Flow Fraction
  ,                                       !- Design Zone Air Distribution Effectiveness in Cooling Mode
  ,                                       !- Design Zone Air Distribution Effectiveness in Heating Mode
  No,                                     !- Account for Dedicated Outdoor Air System
  NeutralSupplyAir,                       !- Dedicated Outdoor Air System Control Strategy
  autosize,                               !- Dedicated Outdoor Air Low Setpoint Temperature for Design {C}
  autosize;                               !- Dedicated Outdoor Air High Setpoint Temperature for Design {C}

OS:ZoneHVAC:EquipmentList,
  {cf1b0e2f-71b1-4755-93e3-f74ca13c91cd}, !- Handle
  Zone HVAC Equipment List 1,             !- Name
  {014d7b88-0570-4292-8837-bb8faf2e171b}, !- Thermal Zone
  {e2b1581a-58d2-4269-8bb2-0da72ac96945}, !- Zone Equipment 1
  1,                                      !- Zone Equipment Cooling Sequence 1
  1,                                      !- Zone Equipment Heating or No-Load Sequence 1
  {bdcb7643-d5b6-481a-98a5-1480a59a9d2b}, !- Zone Equipment 2
  2,                                      !- Zone Equipment Cooling Sequence 2
  2;                                      !- Zone Equipment Heating or No-Load Sequence 2

OS:Space,
  {7b36aa59-2044-469a-a307-a8a7416776c9}, !- Handle
  FullServiceRestaurant Kitchen B end_a - Story Ground, !- Name
  {21320a83-e8c1-4843-b03f-a268049ff1fb}, !- Space Type Name
  ,                                       !- Default Construction Set Name
  ,                                       !- Default Schedule Set Name
  -0,                                     !- Direction of Relative North {deg}
  -24.0965557704831,                      !- X Origin {m}
  -7.47627788524153,                      !- Y Origin {m}
  0,                                      !- Z Origin {m}
  {1948d7b8-a8e8-47fb-aaaf-6f06567bae42}, !- Building Story Name
  {9e68a2d2-2a19-4f8e-b0b8-fa2476b39896}; !- Thermal Zone Name

OS:Surface,
  {38d97a67-9d42-4f9c-8794-5b7196c77b92}, !- Handle
  Surface 7,                              !- Name
  Floor,                                  !- Surface Type
  ,                                       !- Construction Name
  {7b36aa59-2044-469a-a307-a8a7416776c9}, !- Space Name
  Ground,                                 !- Outside Boundary Condition
  ,                                       !- Outside Boundary Condition Object
  NoSun,                                  !- Sun Exposure
  NoWind,                                 !- Wind Exposure
  ,                                       !- View Factor to Ground
  ,                                       !- Number of Vertices
  -4.9737991503207e-14, -5.32907051820075e-15, 0, !- X,Y,Z Vertex 1 {m}
  -4.9737991503207e-14, 14.9525557704831, 0, !- X,Y,Z Vertex 2 {m}
  4.57199999999995, 14.9525557704831, 0,  !- X,Y,Z Vertex 3 {m}
  4.57199999999995, -5.32907051820075e-15, 0; !- X,Y,Z Vertex 4 {m}

OS:Surface,
  {5ea7735b-875a-4f89-bfc4-cb97ecd283e9}, !- Handle
  Surface 8,                              !- Name
  Wall,                                   !- Surface Type
  ,                                       !- Construction Name
  {7b36aa59-2044-469a-a307-a8a7416776c9}, !- Space Name
  Outdoors,                               !- Outside Boundary Condition
  ,                                       !- Outside Boundary Condition Object
  SunExposed,                             !- Sun Exposure
  WindExposed,                            !- Wind Exposure
  ,                                       !- View Factor to Ground
  ,                                       !- Number of Vertices
  -4.9737991503207e-14, 14.9525557704831, 3.048, !- X,Y,Z Vertex 1 {m}
  -4.9737991503207e-14, 14.9525557704831, 0, !- X,Y,Z Vertex 2 {m}
  -4.9737991503207e-14, -5.32907051820075e-15, 0, !- X,Y,Z Vertex 3 {m}
  -4.9737991503207e-14, -5.32907051820075e-15, 3.048; !- X,Y,Z Vertex 4 {m}

OS:Surface,
  {b1f37236-6ab6-413c-876d-4d76a75f1bfc}, !- Handle
  Surface 9,                              !- Name
  Wall,                                   !- Surface Type
  ,                                       !- Construction Name
  {7b36aa59-2044-469a-a307-a8a7416776c9}, !- Space Name
  Surface,                                !- Outside Boundary Condition
  {4e7c738e-79ac-47c7-9ab6-358a92be17cd}, !- Outside Boundary Condition Object
  NoSun,                                  !- Sun Exposure
  NoWind,                                 !- Wind Exposure
  ,                                       !- View Factor to Ground
  ,                                       !- Number of Vertices
  4.57199999999995, 14.9525557704831, 3.048, !- X,Y,Z Vertex 1 {m}
  4.57199999999995, 14.9525557704831, 0,  !- X,Y,Z Vertex 2 {m}
  -4.9737991503207e-14, 14.9525557704831, 0, !- X,Y,Z Vertex 3 {m}
  -4.9737991503207e-14, 14.9525557704831, 3.048; !- X,Y,Z Vertex 4 {m}

OS:Surface,
  {26efc26b-2410-4a2a-bfb7-2cd818e9be8e}, !- Handle
  Surface 10,                             !- Name
  Wall,                                   !- Surface Type
  ,                                       !- Construction Name
  {7b36aa59-2044-469a-a307-a8a7416776c9}, !- Space Name
  Surface,                                !- Outside Boundary Condition
  {3d3262ac-29a6-4407-b7b2-079162761409}, !- Outside Boundary Condition Object
  NoSun,                                  !- Sun Exposure
  NoWind,                                 !- Wind Exposure
  ,                                       !- View Factor to Ground
  ,                                       !- Number of Vertices
  4.57199999999995, -5.32907051820075e-15, 3.048, !- X,Y,Z Vertex 1 {m}
  4.57199999999995, -5.32907051820075e-15, 0, !- X,Y,Z Vertex 2 {m}
  4.57199999999995, 14.9525557704831, 0,  !- X,Y,Z Vertex 3 {m}
  4.57199999999995, 14.9525557704831, 3.048; !- X,Y,Z Vertex 4 {m}

OS:Surface,
  {96ed5c96-c932-4374-b1b9-3331f037bd02}, !- Handle
  Surface 11,                             !- Name
  Wall,                                   !- Surface Type
  ,                                       !- Construction Name
  {7b36aa59-2044-469a-a307-a8a7416776c9}, !- Space Name
  Surface,                                !- Outside Boundary Condition
  {1d2f1c83-0ced-40e0-b0a9-abc6cf4e0601}, !- Outside Boundary Condition Object
  NoSun,                                  !- Sun Exposure
  NoWind,                                 !- Wind Exposure
  ,                                       !- View Factor to Ground
  ,                                       !- Number of Vertices
  -4.9737991503207e-14, -5.32907051820075e-15, 3.048, !- X,Y,Z Vertex 1 {m}
  -4.9737991503207e-14, -5.32907051820075e-15, 0, !- X,Y,Z Vertex 2 {m}
  4.57199999999995, -5.32907051820075e-15, 0, !- X,Y,Z Vertex 3 {m}
  4.57199999999995, -5.32907051820075e-15, 3.048; !- X,Y,Z Vertex 4 {m}

OS:Surface,
  {91925190-4d89-47ab-ab52-6dbe1bdae0f0}, !- Handle
  Surface 12,                             !- Name
  RoofCeiling,                            !- Surface Type
  {ed4fa71d-e199-4a78-a47e-3c7df30f4360}, !- Construction Name
  {7b36aa59-2044-469a-a307-a8a7416776c9}, !- Space Name
  Adiabatic,                              !- Outside Boundary Condition
  ,                                       !- Outside Boundary Condition Object
  NoSun,                                  !- Sun Exposure
  NoWind,                                 !- Wind Exposure
  ,                                       !- View Factor to Ground
  ,                                       !- Number of Vertices
  4.57199999999995, -5.32907051820075e-15, 3.048, !- X,Y,Z Vertex 1 {m}
  4.57199999999995, 14.9525557704831, 3.048, !- X,Y,Z Vertex 2 {m}
  -4.9737991503207e-14, 14.9525557704831, 3.048, !- X,Y,Z Vertex 3 {m}
  -4.9737991503207e-14, -5.32907051820075e-15, 3.048; !- X,Y,Z Vertex 4 {m}

OS:ThermalZone,
  {9e68a2d2-2a19-4f8e-b0b8-fa2476b39896}, !- Handle
  Zone FullServiceRestaurant Kitchen B end_a - Story Ground, !- Name
  1,                                      !- Multiplier
  ,                                       !- Ceiling Height {m}
  ,                                       !- Volume {m3}
  ,                                       !- Floor Area {m2}
  ,                                       !- Zone Inside Convection Algorithm
  ,                                       !- Zone Outside Convection Algorithm
  ,                                       !- Zone Conditioning Equipment List Name
  {0de18f55-8623-4a2a-969d-0b6c3da68a8f}, !- Zone Air Inlet Port List
  {ebffc9ab-46d9-45c0-8098-bec8cc16c342}, !- Zone Air Exhaust Port List
  {9bf7fb7d-a3bd-4a58-9d5a-485dae9f3db9}, !- Zone Air Node Name
  ,                                       !- Zone Return Air Node Name
  ,                                       !- Primary Daylighting Control Name
  ,                                       !- Fraction of Zone Controlled by Primary Daylighting Control
  ,                                       !- Secondary Daylighting Control Name
  ,                                       !- Fraction of Zone Controlled by Secondary Daylighting Control
  ,                                       !- Illuminance Map Name
  ,                                       !- Group Rendering Name
  {02a31462-b60a-4d23-aa54-6dda534c5c7a}, !- Thermostat Name
  No;                                     !- Use Ideal Air Loads

OS:Node,
  {d9050d6c-f653-4a7f-b8ea-8d33c65096cc}, !- Handle
  Node 2,                                 !- Name
  {9bf7fb7d-a3bd-4a58-9d5a-485dae9f3db9}, !- Inlet Port
  ;                                       !- Outlet Port

OS:Connection,
  {9bf7fb7d-a3bd-4a58-9d5a-485dae9f3db9}, !- Handle
  {0a603531-13b8-4d69-bd77-e751964cfbe4}, !- Name
  {9e68a2d2-2a19-4f8e-b0b8-fa2476b39896}, !- Source Object
  11,                                     !- Outlet Port
  {d9050d6c-f653-4a7f-b8ea-8d33c65096cc}, !- Target Object
  2;                                      !- Inlet Port

OS:PortList,
  {0de18f55-8623-4a2a-969d-0b6c3da68a8f}, !- Handle
  Port List 3,                            !- Name
  {9e68a2d2-2a19-4f8e-b0b8-fa2476b39896}, !- HVAC Component
  {93a48bc5-8972-42d6-b33e-f8c76d40ef53}; !- Port 1

OS:PortList,
  {ebffc9ab-46d9-45c0-8098-bec8cc16c342}, !- Handle
  Port List 4,                            !- Name
  {9e68a2d2-2a19-4f8e-b0b8-fa2476b39896}, !- HVAC Component
  {c7cd0305-bc51-488e-8a7d-38bc7a545bd4}, !- Port 1
  {c66ceda2-cf1d-4b94-b81d-07c3c4f95a3c}; !- Port 2

OS:Sizing:Zone,
  {2814f48f-5cd7-4dd2-8d4b-85dfab45b9e3}, !- Handle
  {9e68a2d2-2a19-4f8e-b0b8-fa2476b39896}, !- Zone or ZoneList Name
  SupplyAirTemperature,                   !- Zone Cooling Design Supply Air Temperature Input Method
  14,                                     !- Zone Cooling Design Supply Air Temperature {C}
  11.11,                                  !- Zone Cooling Design Supply Air Temperature Difference {deltaC}
  SupplyAirTemperature,                   !- Zone Heating Design Supply Air Temperature Input Method
  40,                                     !- Zone Heating Design Supply Air Temperature {C}
  11.11,                                  !- Zone Heating Design Supply Air Temperature Difference {deltaC}
  0.0085,                                 !- Zone Cooling Design Supply Air Humidity Ratio {kg-H2O/kg-air}
  0.008,                                  !- Zone Heating Design Supply Air Humidity Ratio {kg-H2O/kg-air}
  ,                                       !- Zone Heating Sizing Factor
  ,                                       !- Zone Cooling Sizing Factor
  DesignDay,                              !- Cooling Design Air Flow Method
  ,                                       !- Cooling Design Air Flow Rate {m3/s}
  ,                                       !- Cooling Minimum Air Flow per Zone Floor Area {m3/s-m2}
  ,                                       !- Cooling Minimum Air Flow {m3/s}
  ,                                       !- Cooling Minimum Air Flow Fraction
  DesignDay,                              !- Heating Design Air Flow Method
  ,                                       !- Heating Design Air Flow Rate {m3/s}
  ,                                       !- Heating Maximum Air Flow per Zone Floor Area {m3/s-m2}
  ,                                       !- Heating Maximum Air Flow {m3/s}
  ,                                       !- Heating Maximum Air Flow Fraction
  ,                                       !- Design Zone Air Distribution Effectiveness in Cooling Mode
  ,                                       !- Design Zone Air Distribution Effectiveness in Heating Mode
  No,                                     !- Account for Dedicated Outdoor Air System
  NeutralSupplyAir,                       !- Dedicated Outdoor Air System Control Strategy
  autosize,                               !- Dedicated Outdoor Air Low Setpoint Temperature for Design {C}
  autosize;                               !- Dedicated Outdoor Air High Setpoint Temperature for Design {C}

OS:ZoneHVAC:EquipmentList,
  {eab0ebe5-8064-4b4a-9449-28b2519dd69c}, !- Handle
  Zone HVAC Equipment List 2,             !- Name
  {9e68a2d2-2a19-4f8e-b0b8-fa2476b39896}, !- Thermal Zone
  {9326c646-fdf3-47c8-9135-8eaf638b8dc5}, !- Zone Equipment 1
  1,                                      !- Zone Equipment Cooling Sequence 1
  1,                                      !- Zone Equipment Heating or No-Load Sequence 1