
OS:Version,
  {26b4894a-ed61-4813-9c57-8bca282f5066}, !- Handle
  1.13.0;                                 !- Version Identifier

OS:Site,
  {89fc35dc-0a32-4d6b-938d-c82c7f015f05}, !- Handle
  Site 1,                                 !- Name
  ,                                       !- Latitude {deg}
  ,                                       !- Longitude {deg}
  ,                                       !- Time Zone {hr}
  ,                                       !- Elevation {m}
  ;                                       !- Terrain

OS:YearDescription,
  {c781484b-fd25-457e-81c2-e01e49b47eac}; !- Handle

OS:ClimateZones,
  {4cc52dac-3432-4513-9366-5b504ee03456}, !- Handle
  ,                                       !- Active Institution
  ,                                       !- Active Year
  ASHRAE,                                 !- Climate Zone Institution Name 1
  ANSI/ASHRAE Standard 169,               !- Climate Zone Document Name 1
  2006,                                   !- Climate Zone Document Year 1
  5B,                                     !- Climate Zone Value 1
  CEC,                                    !- Climate Zone Institution Name 2
  California Climate Zone Descriptions,   !- Climate Zone Document Name 2
  1995,                                   !- Climate Zone Document Year 2
  ;                                       !- Climate Zone Value 2

OS:Building,
  {72bd5da4-211d-44d6-8469-6f34a056c11a}, !- Handle
  RetailStandalone 90.1-2013 5B,          !- Name
  ,                                       !- Building Sector Type
  ,                                       !- North Axis {deg}
  ,                                       !- Nominal Floor to Floor Height {m}
  {2326d502-ac75-451d-9fb7-822be51a78bf}, !- Space Type Name
  {a2bdb596-d393-4e53-949b-4383c4c1dd10}, !- Default Construction Set Name
  ,                                       !- Default Schedule Set Name
  ,                                       !- Standards Number of Stories
  ,                                       !- Standards Number of Above Ground Stories
  Retail;                                 !- Standards Building Type

OS:Facility,
  {30dbceb5-524d-4925-9d74-323149693358}; !- Handle

OS:SimulationControl,
  {0beb8fd8-f725-4b92-b8fb-b9e9d0344a4e}; !- Handle

OS:Sizing:Parameters,
  {b8edc51d-f3f3-421a-a21d-d18a0c40c7cf}, !- Handle
  1.25,                                   !- Heating Sizing Factor
  1.15;                                   !- Cooling Sizing Factor

OS:Timestep,
  {debde56b-1a6f-431b-8314-b4834e420f85}, !- Handle
  6;                                      !- Number of Timesteps per Hour

OS:ShadowCalculation,
  {60536e55-ece5-409c-a562-6f1c7248a7f6}, !- Handle
  20,                                     !- Calculation Frequency
  15000;                                  !- Maximum Figures in Shadow Overlap Calculations

OS:HeatBalanceAlgorithm,
  {1b2a5989-d8a3-473b-af1b-ebdcb3fe203a}, !- Handle
  ConductionTransferFunction,             !- Algorithm
  200;                                    !- Surface Temperature Upper Limit {C}

OS:RunPeriod,
  {b84fed10-31b5-40e3-8c9c-dbf6cc2b6f4f}, !- Handle
  Run Period 1,                           !- Name
  1,                                      !- Begin Month
  1,                                      !- Begin Day of Month
  12,                                     !- End Month
  31,                                     !- End Day of Month
  ,                                       !- Use Weather File Holidays and Special Days
  ,                                       !- Use Weather File Daylight Saving Period
  ,                                       !- Apply Weekend Holiday Rule
  ,                                       !- Use Weather File Rain Indicators
  ,                                       !- Use Weather File Snow Indicators
  ;                                       !- Number of Times Runperiod to be Repeated

OS:LifeCycleCost:Parameters,
  {f6179332-4f3a-4a84-abb3-968f008f97ca}, !- Handle
  ,                                       !- Analysis Type
  ,                                       !- Discounting Convention
  ,                                       !- Inflation Approach
  ,                                       !- Real Discount Rate
  ,                                       !- Nominal Discount Rate
  ,                                       !- Inflation
  ,                                       !- Base Date Month
  ,                                       !- Base Date Year
  ,                                       !- Service Date Month
  ,                                       !- Service Date Year
  ;                                       !- Length of Study Period in Years

OS:SpaceType,
  {e0a2496a-04d8-41c6-a7be-aa4eb86d3789}, !- Handle
  Retail Back_Space - 90.1-2013,          !- Name
  ,                                       !- Default Construction Set Name
  {c739a63d-8fdd-4505-8904-8389d236e306}, !- Default Schedule Set Name
  {7f966eb4-cd8c-45c3-b9b0-c03475ab65a1}, !- Group Rendering Name
  {3fe8e921-836a-4b34-807c-055d10fa4e86}, !- Design Specification Outdoor Air Object Name
  Retail,                                 !- Standards Building Type
  Back_Space;                             !- Standards Space Type

OS:Rendering:Color,
  {f19d552e-c4fd-4939-9d13-e468d22ceda7}, !- Handle
  Rendering Color 1,                      !- Name
  120,                                    !- Rendering Red Value
  149,                                    !- Rendering Green Value
  230;                                    !- Rendering Blue Value

OS:SpaceType,
  {efd24168-e12d-428b-97d5-ffa15569f570}, !- Handle
  Retail Entry - 90.1-2013,               !- Name
  ,                                       !- Default Construction Set Name
  {cce16544-a17e-494e-8a3f-834bf32f20be}, !- Default Schedule Set Name
  {42cc048e-4b16-4305-b3bf-01faeb4fca6d}, !- Group Rendering Name
  {f7d9d39b-afbc-4c03-8354-7d83154c1699}, !- Design Specification Outdoor Air Object Name
  Retail,                                 !- Standards Building Type
  Entry;                                  !- Standards Space Type

OS:Rendering:Color,
  {e38535f8-272b-4bfe-a534-2375aef29a00}, !- Handle
  Rendering Color 2,                      !- Name
  169,                                    !- Rendering Red Value
  31,                                     !- Rendering Green Value
  31;                                     !- Rendering Blue Value

OS:SpaceType,
  {edba1c1a-8a1b-4d98-91c3-73c067971053}, !- Handle
  Retail Point_of_Sale - 90.1-2013,       !- Name
  ,                                       !- Default Construction Set Name
  {f0663ec6-cafc-4069-acc1-2c4d9bfc09f9}, !- Default Schedule Set Name
  {3cd521b2-2b6c-46e5-8640-921a67d293a8}, !- Group Rendering Name
  {87d5af59-5786-4f75-86a3-ac062d4e979a}, !- Design Specification Outdoor Air Object Name
  Retail,                                 !- Standards Building Type
  Point_of_Sale;                          !- Standards Space Type

OS:Rendering:Color,
  {8c0d4101-5d3b-4bb3-b7ed-c12769a16888}, !- Handle
  Rendering Color 3,                      !- Name
  171,                                    !- Rendering Red Value
  222,                                    !- Rendering Green Value
  78;                                     !- Rendering Blue Value

OS:SpaceType,
  {2326d502-ac75-451d-9fb7-822be51a78bf}, !- Handle
  Retail Retail - 90.1-2013,              !- Name
  ,                                       !- Default Construction Set Name
  {8141f273-edb2-4876-b182-b0cf700dbefd}, !- Default Schedule Set Name
  {9271b46b-24bb-4ae2-8e95-c8cc08e8b093}, !- Group Rendering Name
  {e64d1c3e-b455-4272-9a2d-c97470882aed}, !- Design Specification Outdoor Air Object Name
  Retail,                                 !- Standards Building Type
  Retail;                                 !- Standards Space Type

OS:Rendering:Color,
  {aa0cadb7-73b5-4b5f-a703-2018ad82ab05}, !- Handle
  Rendering Color 4,                      !- Name
  171,                                    !- Rendering Red Value
  222,                                    !- Rendering Green Value
  78;                                     !- Rendering Blue Value

OS:People:Definition,
  {dc3284c3-04f1-4193-8480-701c09d6c0d0}, !- Handle
  Retail Back_Space People Definition,    !- Name
  People/Area,                            !- Number of People Calculation Method
  ,                                       !- Number of People {people}
  0.161458656250646,                      !- People per Space Floor Area {person/m2}
  ,                                       !- Space Floor Area per Person {m2/person}
  0.3;                                    !- Fraction Radiant

OS:People,
  {ea59da41-1cc5-48ad-a36e-f0929badb273}, !- Handle
  Retail Back_Space People,               !- Name
  {dc3284c3-04f1-4193-8480-701c09d6c0d0}, !- People Definition Name
  {e0a2496a-04d8-41c6-a7be-aa4eb86d3789}, !- Space or SpaceType Name
  ,                                       !- Number of People Schedule Name
  ,                                       !- Activity Level Schedule Name
  ,                                       !- Surface Name/Angle Factor List Name
  {f54aa3af-f563-468a-a208-563d3acd8d3c}, !- Work Efficiency Schedule Name
  {b2907969-62ee-489f-92f9-2a249eb12474}, !- Clothing Insulation Schedule Name
  {dd18c562-fe61-4f23-a76f-7860578540e3}; !- Air Velocity Schedule Name

OS:Schedule:Ruleset,
  {b2907969-62ee-489f-92f9-2a249eb12474}, !- Handle
  Clothing Schedule,                      !- Name
  {b851b8e4-48a9-4366-b6e8-945cb91c2083}, !- Schedule Type Limits Name
  {be738f76-7191-4636-a0df-8e3b77beefac}; !- Default Day Schedule Name

OS:Schedule:Day,
  {be738f76-7191-4636-a0df-8e3b77beefac}, !- Handle
  Clothing Schedule Default Winter Clothes, !- Name
  {b851b8e4-48a9-4366-b6e8-945cb91c2083}, !- Schedule Type Limits Name
  ,                                       !- Interpolate to Timestep
  24,                                     !- Hour 1
  0,                                      !- Minute 1
  1;                                      !- Value Until Time 1

OS:Schedule:Rule,
  {c87f8a65-4188-48cb-8e8e-ca92d870c104}, !- Handle
  Schedule Rule 1,                        !- Name
  {b2907969-62ee-489f-92f9-2a249eb12474}, !- Schedule Ruleset Name
  0,                                      !- Rule Order
  {906ab81d-7462-47f7-96a0-4ac54baaca2e}, !- Day Schedule Name
  ,                                       !- Apply Sunday
  ,                                       !- Apply Monday
  ,                                       !- Apply Tuesday
  ,                                       !- Apply Wednesday
  ,                                       !- Apply Thursday
  ,                                       !- Apply Friday
  ,                                       !- Apply Saturday
  ,                                       !- Apply Holiday
  DateRange,                              !- Date Specification Type
  5,                                      !- Start Month
  1,                                      !- Start Day
  9,                                      !- End Month
  30;                                     !- End Day

OS:Schedule:Day,
  {906ab81d-7462-47f7-96a0-4ac54baaca2e}, !- Handle
  Clothing Schedule Summer Clothes,       !- Name
  {b851b8e4-48a9-4366-b6e8-945cb91c2083}, !- Schedule Type Limits Name
  ,                                       !- Interpolate to Timestep
  24,                                     !- Hour 1
  0,                                      !- Minute 1
  0.5;                                    !- Value Until Time 1

OS:ScheduleTypeLimits,
  {b851b8e4-48a9-4366-b6e8-945cb91c2083}, !- Handle
  ClothingInsulation,                     !- Name
  0,                                      !- Lower Limit Value
  ,                                       !- Upper Limit Value
  Continuous,                             !- Numeric Type
  ClothingInsulation;                     !- Unit Type

OS:Schedule:Ruleset,
  {dd18c562-fe61-4f23-a76f-7860578540e3}, !- Handle
  Air Velocity Schedule,                  !- Name
  {3774d4c1-a50c-477a-b3fc-bbbbe8497fd4}, !- Schedule Type Limits Name
  {54ec5721-db27-49e2-adec-b951df9a55b2}; !- Default Day Schedule Name

OS:Schedule:Day,
  {54ec5721-db27-49e2-adec-b951df9a55b2}, !- Handle
  Air Velocity Schedule Default,          !- Name
  {3774d4c1-a50c-477a-b3fc-bbbbe8497fd4}, !- Schedule Type Limits Name
  ,                                       !- Interpolate to Timestep
  24,                                     !- Hour 1
  0,                                      !- Minute 1
  0.2;                                    !- Value Until Time 1

OS:ScheduleTypeLimits,
  {3774d4c1-a50c-477a-b3fc-bbbbe8497fd4}, !- Handle
  Velocity,                               !- Name
  0,                                      !- Lower Limit Value
  ,                                       !- Upper Limit Value
  Continuous,                             !- Numeric Type
  Velocity;                               !- Unit Type

OS:Schedule:Ruleset,
  {f54aa3af-f563-468a-a208-563d3acd8d3c}, !- Handle
  Work Efficiency Schedule,               !- Name
  {1ee2cf57-5dc6-4baf-94c1-a46f035d1f90}, !- Schedule Type Limits Name
  {dde48c9c-4fc1-4883-92b4-1e9afc937ec1}; !- Default Day Schedule Name

OS:Schedule:Day,
  {dde48c9c-4fc1-4883-92b4-1e9afc937ec1}, !- Handle
  Work Efficiency Schedule Default,       !- Name
  {1ee2cf57-5dc6-4baf-94c1-a46f035d1f90}, !- Schedule Type Limits Name
  ,                                       !- Interpolate to Timestep
  24,                                     !- Hour 1
  0,                                      !- Minute 1
  0;                                      !- Value Until Time 1

OS:ScheduleTypeLimits,
  {1ee2cf57-5dc6-4baf-94c1-a46f035d1f90}, !- Handle
  Fractional,                             !- Name
  0,                                      !- Lower Limit Value
  1,                                      !- Upper Limit Value
  Continuous;                             !- Numeric Type

OS:Lights:Definition,
  {f568255b-d5b0-4d03-9df7-02569c4cbff1}, !- Handle
  Retail Back_Space Lights Definition,    !- Name
  Watts/Area,                             !- Design Level Calculation Method
  ,                                       !- Lighting Level {W}
  6.78126356252712,                       !- Watts per Space Floor Area {W/m2}
  ,                                       !- Watts per Person {W/person}
  0.7,                                    !- Fraction Radiant
  0.2;                                    !- Fraction Visible

OS:Lights,
  {dc15a5c0-b282-4745-8286-8baebdaa3e3c}, !- Handle
  Retail Back_Space Lights,               !- Name
  {f568255b-d5b0-4d03-9df7-02569c4cbff1}, !- Lights Definition Name
  {e0a2496a-04d8-41c6-a7be-aa4eb86d3789}; !- Space or SpaceType Name

OS:ElectricEquipment:Definition,
  {c06d5f18-0a02-4a3b-9bff-84e5d8501566}, !- Handle
  Retail Back_Space Elec Equip Definition, !- Name
  Watts/Area,                             !- Design Level Calculation Method
  ,                                       !- Design Level {W}
  8.07293281253229,                       !- Watts per Space Floor Area {W/m2}
  ,                                       !- Watts per Person {W/person}
  ,                                       !- Fraction Latent
  0.5;                                    !- Fraction Radiant

OS:ElectricEquipment,
  {2769efcb-3916-45a0-8d64-e6dbd7781493}, !- Handle
  Retail Back_Space Elec Equip,           !- Name
  {c06d5f18-0a02-4a3b-9bff-84e5d8501566}, !- Electric Equipment Definition Name
  {e0a2496a-04d8-41c6-a7be-aa4eb86d3789}; !- Space or SpaceType Name

OS:DesignSpecification:OutdoorAir,
  {3fe8e921-836a-4b34-807c-055d10fa4e86}, !- Handle
  Retail Back_Space Ventilation,          !- Name
  Sum,                                    !- Outdoor Air Method
  ,                                       !- Outdoor Air Flow per Person {m3/s-person}
  0.0006096,                              !- Outdoor Air Flow per Floor Area {m3/s-m2}
  ,                                       !- Outdoor Air Flow Rate {m3/s}
  ,                                       !- Outdoor Air Flow Air Changes per Hour {1/hr}
  ;                                       !- Outdoor Air Flow Rate Fraction Schedule Name

OS:SpaceInfiltration:DesignFlowRate,
  {d3fe2cf6-3078-475d-897f-f2df0c5b89d2}, !- Handle
  Retail Back_Space Infiltration,         !- Name
  {e0a2496a-04d8-41c6-a7be-aa4eb86d3789}, !- Space or SpaceType Name
  ,                                       !- Schedule Name
  Flow/ExteriorArea,                      !- Design Flow Rate Calculation Method
  ,                                       !- Design Flow Rate {m3/s}
  ,                                       !- Flow per Space Floor Area {m3/s-m2}
  0.000226568,                            !- Flow per Exterior Surface Area {m3/s-m2}
  ,                                       !- Air Changes per Hour {1/hr}
  ,                                       !- Constant Term Coefficient
  ,                                       !- Temperature Term Coefficient
  ,                                       !- Velocity Term Coefficient
  ;                                       !- Velocity Squared Term Coefficient

OS:DefaultScheduleSet,
  {c739a63d-8fdd-4505-8904-8389d236e306}, !- Handle
  Retail Back_Space Schedule Set,         !- Name
  ,                                       !- Hours of Operation Schedule Name
  {b9135e93-0867-4a6d-aa3e-1d410b579cba}, !- Number of People Schedule Name
  {b4e1fe9e-2bd0-4fb2-ae0d-e66b9614ff1a}, !- People Activity Level Schedule Name
  {e9b775b2-b171-45d9-a2da-0d80b9c72d87}, !- Lighting Schedule Name
  {c9ec5a2a-cbf0-4625-ad1c-b1407a771896}, !- Electric Equipment Schedule Name
  ,                                       !- Gas Equipment Schedule Name
  ,                                       !- Hot Water Equipment Schedule Name
  {09e592fc-3ae5-4e68-95b5-859b32640dbf}, !- Infiltration Schedule Name
  ,                                       !- Steam Equipment Schedule Name
  ;                                       !- Other Equipment Schedule Name

OS:Schedule:Ruleset,
  {b9135e93-0867-4a6d-aa3e-1d410b579cba}, !- Handle
  RetailStandalone BLDG_OCC_SCH_2010,     !- Name
  {1ee2cf57-5dc6-4baf-94c1-a46f035d1f90}, !- Schedule Type Limits Name
  {c7ca3031-bdf1-4a12-883a-070be6df61af}, !- Default Day Schedule Name
  {f86b5a92-646f-4165-8a61-1d833be60684}, !- Summer Design Day Schedule Name
  {888253fc-48d8-4827-8040-50590cd62063}; !- Winter Design Day Schedule Name

OS:Schedule:Day,
  {c7ca3031-bdf1-4a12-883a-070be6df61af}, !- Handle
  RetailStandalone BLDG_OCC_SCH_2010 Default, !- Name
  {1ee2cf57-5dc6-4baf-94c1-a46f035d1f90}, !- Schedule Type Limits Name
  ,                                       !- Interpolate to Timestep
  9,                                      !- Hour 1
  0,                                      !- Minute 1
  0,                                      !- Value Until Time 1
  10,                                     !- Hour 2
  0,                                      !- Minute 2
  0.1,                                    !- Value Until Time 2
  12,                                     !- Hour 3
  0,                                      !- Minute 3
  0.2,                                    !- Value Until Time 3
  17,                                     !- Hour 4
  0,                                      !- Minute 4
  0.4,                                    !- Value Until Time 4
  18,                                     !- Hour 5
  0,                                      !- Minute 5
  0.2,                                    !- Value Until Time 5
  19,                                     !- Hour 6
  0,                                      !- Minute 6
  0.1,                                    !- Value Until Time 6
  24,                                     !- Hour 7
  0,                                      !- Minute 7
  0;                                      !- Value Until Time 7

OS:Schedule:Rule,
  {fc3cb6a9-d946-4768-8619-59187c25e9d8}, !- Handle
  Schedule Rule 2,                        !- Name
  {b9135e93-0867-4a6d-aa3e-1d410b579cba}, !- Schedule Ruleset Name
  1,                                      !- Rule Order
  {aec4317a-aad6-4ce8-a3e0-76fa0e4b572d}, !- Day Schedule Name
  ,                                       !- Apply Sunday
  ,                                       !- Apply Monday
  ,                                       !- Apply Tuesday
  ,                                       !- Apply Wednesday
  ,                                       !- Apply Thursday
  ,                                       !- Apply Friday
  Yes,                                    !- Apply Saturday
  ,                                       !- Apply Holiday
  DateRange,                              !- Date Specification Type
  1,                                      !- Start Month
  1,                                      !- Start Day
  12,                                     !- End Month
  31;                                     !- End Day

OS:Schedule:Day,
  {aec4317a-aad6-4ce8-a3e0-76fa0e4b572d}, !- Handle
  RetailStandalone BLDG_OCC_SCH_2010 Sat Day, !- Name
  {1ee2cf57-5dc6-4baf-94c1-a46f035d1f90}, !- Schedule Type Limits Name
  ,                                       !- Interpolate to Timestep
  7,                                      !- Hour 1
  0,                                      !- Minute 1
  0,                                      !- Value Until Time 1
  8,                                      !- Hour 2
  0,                                      !- Minute 2
  0.1,                                    !- Value Until Time 2
  9,                                      !- Hour 3
  0,                                      !- Minute 3
  0.2,                                    !- Value Until Time 3
  10,                                     !- Hour 4
  0,                                      !- Minute 4
  0.5,                                    !- Value Until Time 4
  11,                                     !- Hour 5
  0,                                      !- Minute 5
  0.6,                                    !- Value Until Time 5
  17,                                     !- Hour 6
  0,                                      !- Minute 6
  0.8,                                    !- Value Until Time 6
  18,                                     !- Hour 7
  0,                                      !- Minute 7
  0.6,                                    !- Value Until Time 7
  21,                                     !- Hour 8
  0,                                      !- Minute 8
  0.2,                                    !- Value Until Time 8
  22,                                     !- Hour 9
  0,                                      !- Minute 9
  0.1,                                    !- Value Until Time 9
  24,                                     !- Hour 10
  0,                                      !- Minute 10
  0;                                      !- Value Until Time 10

OS:Schedule:Day,
  {abb42512-3c5e-457f-9d98-75a30fe0046e}, !- Handle
  Schedule Day 1,                         !- Name
  ,                                       !- Schedule Type Limits Name
  ,                                       !- Interpolate to Timestep
  24,                                     !- Hour 1
  0,                                      !- Minute 1
  0;                                      !- Value Until Time 1

OS:Schedule:Day,
  {f86b5a92-646f-4165-8a61-1d833be60684}, !- Handle
  RetailStandalone BLDG_OCC_SCH_2010 Summer Design Day, !- Name
  {1ee2cf57-5dc6-4baf-94c1-a46f035d1f90}, !- Schedule Type Limits Name
  ,                                       !- Interpolate to Timestep
  24,                                     !- Hour 1
  0,                                      !- Minute 1
  1;                                      !- Value Until Time 1

OS:Schedule:Rule,
  {9056e1b5-3210-41f2-b0ed-df6a65a93cd4}, !- Handle
  Schedule Rule 3,                        !- Name
  {b9135e93-0867-4a6d-aa3e-1d410b579cba}, !- Schedule Ruleset Name
  0,                                      !- Rule Order
  {8149c6ef-48f6-436d-81f9-4874099c9661}, !- Day Schedule Name
  ,                                       !- Apply Sunday
  Yes,                                    !- Apply Monday
  Yes,                                    !- Apply Tuesday
  Yes,                                    !- Apply Wednesday
  Yes,                                    !- Apply Thursday
  Yes,                                    !- Apply Friday
  ,                                       !- Apply Saturday
  ,                                       !- Apply Holiday
  DateRange,                              !- Date Specification Type
  1,                                      !- Start Month
  1,                                      !- Start Day
  12,                                     !- End Month
  31;                                     !- End Day

OS:Schedule:Day,
  {8149c6ef-48f6-436d-81f9-4874099c9661}, !- Handle
  RetailStandalone BLDG_OCC_SCH_2010 Wkdy Day, !- Name
  {1ee2cf57-5dc6-4baf-94c1-a46f035d1f90}, !- Schedule Type Limits Name
  ,                                       !- Interpolate to Timestep
  7,                                      !- Hour 1
  0,                                      !- Minute 1
  0,                                      !- Value Until Time 1
  8,                                      !- Hour 2
  0,                                      !- Minute 2
  0.1,                                    !- Value Until Time 2
  9,                                      !- Hour 3
  0,                                      !- Minute 3
  0.2,                                    !- Value Until Time 3
  11,                                     !- Hour 4
  0,                                      !- Minute 4
  0.5,                                    !- Value Until Time 4
  15,                                     !- Hour 5
  0,                                      !- Minute 5
  0.7,                                    !- Value Until Time 5
  16,                                     !- Hour 6
  0,                                      !- Minute 6
  0.8,                                    !- Value Until Time 6
  17,                                     !- Hour 7
  0,                                      !- Minute 7
  0.7,                                    !- Value Until Time 7
  19,                                     !- Hour 8
  0,                                      !- Minute 8
  0.5,                                    !- Value Until Time 8
  21,                                     !- Hour 9
  0,                                      !- Minute 9
  0.3,                                    !- Value Until Time 9
  24,                                     !- Hour 10
  0,                                      !- Minute 10
  0;                                      !- Value Until Time 10

OS:Schedule:Day,
  {975e60b7-0290-4897-bd82-f94bdfaf81e8}, !- Handle
  Schedule Day 2,                         !- Name
  ,                                       !- Schedule Type Limits Name
  ,                                       !- Interpolate to Timestep
  24,                                     !- Hour 1
  0,                                      !- Minute 1
  0;                                      !- Value Until Time 1

OS:Schedule:Day,
  {888253fc-48d8-4827-8040-50590cd62063}, !- Handle
  RetailStandalone BLDG_OCC_SCH_2010 Winter Design Day, !- Name
  {1ee2cf57-5dc6-4baf-94c1-a46f035d1f90}, !- Schedule Type Limits Name
  ,                                       !- Interpolate to Timestep
  24,                                     !- Hour 1
  0,                                      !- Minute 1
  0;                                      !- Value Until Time 1

OS:Schedule:Ruleset,
  {b4e1fe9e-2bd0-4fb2-ae0d-e66b9614ff1a}, !- Handle
  RetailStandalone ACTIVITY_SCH,          !- Name
  {97ba8c5f-1a87-4ecb-99a5-c6e2d557936a}, !- Schedule Type Limits Name
  {ec8d9438-7774-4493-962c-53b4840c3bde}, !- Default Day Schedule Name
  {e22d03fb-14d8-444c-8634-ce0f0374b079}, !- Summer Design Day Schedule Name
  {30eb73cf-35c0-4fd1-adf2-2c8e812b0ae5}; !- Winter Design Day Schedule Name

OS:Schedule:Day,
  {ec8d9438-7774-4493-962c-53b4840c3bde}, !- Handle
  RetailStandalone ACTIVITY_SCH Default,  !- Name
  {97ba8c5f-1a87-4ecb-99a5-c6e2d557936a}, !- Schedule Type Limits Name
  ,                                       !- Interpolate to Timestep
  24,                                     !- Hour 1
  0,                                      !- Minute 1
  120;                                    !- Value Until Time 1

OS:Schedule:Day,
  {78fb3d29-3b63-4431-b921-0589e9140bd2}, !- Handle
  Schedule Day 3,                         !- Name
  ,                                       !- Schedule Type Limits Name
  ,                                       !- Interpolate to Timestep
  24,                                     !- Hour 1
  0,                                      !- Minute 1
  0;                                      !- Value Until Time 1

OS:Schedule:Day,
  {30eb73cf-35c0-4fd1-adf2-2c8e812b0ae5}, !- Handle
  RetailStandalone ACTIVITY_SCH Winter Design Day, !- Name
  {97ba8c5f-1a87-4ecb-99a5-c6e2d557936a}, !- Schedule Type Limits Name
  ,                                       !- Interpolate to Timestep
  24,                                     !- Hour 1
  0,                                      !- Minute 1
  120;                                    !- Value Until Time 1

OS:Schedule:Day,
  {74c68603-9f7d-48e1-b44c-13b26d86faa9}, !- Handle
  Schedule Day 4,                         !- Name
  ,                                       !- Schedule Type Limits Name
  ,                                       !- Interpolate to Timestep
  24,                                     !- Hour 1
  0,                                      !- Minute 1
  0;                                      !- Value Until Time 1

OS:Schedule:Day,