
OS:Version,
  {96b54191-0934-400e-9616-c39688e85cc3}, !- Handle
  1.13.0;                                 !- Version Identifier

OS:Site,
  {25902c06-4d89-47eb-ad5d-757a8ccfd2ce}, !- Handle
  Site 1,                                 !- Name
  ,                                       !- Latitude {deg}
  ,                                       !- Longitude {deg}
  ,                                       !- Time Zone {hr}
  ,                                       !- Elevation {m}
  ;                                       !- Terrain

OS:YearDescription,
  {3e950344-c2b9-41ed-b39a-4bd7bb39acaa}; !- Handle

OS:ClimateZones,
  {9f77e42a-3f54-43b1-90b8-73aeb829104f}, !- Handle
  ,                                       !- Active Institution
  ,                                       !- Active Year
  ASHRAE,                                 !- Climate Zone Institution Name 1
  ANSI/ASHRAE Standard 169,               !- Climate Zone Document Name 1
  2006,                                   !- Climate Zone Document Year 1
  2A,                                     !- Climate Zone Value 1
  CEC,                                    !- Climate Zone Institution Name 2
  California Climate Zone Descriptions,   !- Climate Zone Document Name 2
  1995,                                   !- Climate Zone Document Year 2
  ;                                       !- Climate Zone Value 2

OS:Building,
  {3c02d30c-f951-4c15-a873-3da8e8d6dd24}, !- Handle
  SmallOffice 90.1-2010 2A,               !- Name
  ,                                       !- Building Sector Type
  ,                                       !- North Axis {deg}
  ,                                       !- Nominal Floor to Floor Height {m}
  {9c4a01f2-527f-40db-a608-114d3a574e0b}, !- Space Type Name
  {635a3a22-8f32-49a0-b797-df11cc3f082e}, !- Default Construction Set Name
  ,                                       !- Default Schedule Set Name
  ,                                       !- Standards Number of Stories
  ,                                       !- Standards Number of Above Ground Stories
  Office;                                 !- Standards Building Type

OS:Facility,
  {2f99e069-5d77-4a2e-931c-16cdecc8fad1}; !- Handle

OS:SimulationControl,
  {ea2cd956-72f1-4718-884b-85ba56c882ba}; !- Handle

OS:Sizing:Parameters,
  {53a9d51f-fd55-487a-b4d2-2d165bbb91fe}, !- Handle
  1.25,                                   !- Heating Sizing Factor
  1.15;                                   !- Cooling Sizing Factor

OS:Timestep,
  {90dd41d3-a027-4d81-9c31-3936e8cc219d}, !- Handle
  6;                                      !- Number of Timesteps per Hour

OS:ShadowCalculation,
  {e380c66e-7db1-4133-ba48-032828a231b8}, !- Handle
  20,                                     !- Calculation Frequency
  15000;                                  !- Maximum Figures in Shadow Overlap Calculations

OS:HeatBalanceAlgorithm,
  {fcf18a08-61bd-4f8d-9e4a-6b2002c66cd0}, !- Handle
  ConductionTransferFunction,             !- Algorithm
  200;                                    !- Surface Temperature Upper Limit {C}

OS:RunPeriod,
  {e370205b-9127-4723-baef-270ce05473df}, !- Handle
  Run Period 1,                           !- Name
  1,                                      !- Begin Month
  1,                                      !- Begin Day of Month
  12,                                     !- End Month
  31,                                     !- End Day of Month
  ,                                       !- Use Weather File Holidays and Special Days
  ,                                       !- Use Weather File Daylight Saving Period
  ,                                       !- Apply Weekend Holiday Rule
  ,                                       !- Use Weather File Rain Indicators
  ,                                       !- Use Weather File Snow Indicators
  ;                                       !- Number of Times Runperiod to be Repeated

OS:LifeCycleCost:Parameters,
  {27bdd8ee-d7fd-4853-9193-8582b805ee44}, !- Handle
  ,                                       !- Analysis Type
  ,                                       !- Discounting Convention
  ,                                       !- Inflation Approach
  ,                                       !- Real Discount Rate
  ,                                       !- Nominal Discount Rate
  ,                                       !- Inflation
  ,                                       !- Base Date Month
  ,                                       !- Base Date Year
  ,                                       !- Service Date Month
  ,                                       !- Service Date Year
  ;                                       !- Length of Study Period in Years

OS:SpaceType,
  {5510995d-b4fc-4ae9-802e-c2197b21f946}, !- Handle
  Office BreakRoom - 90.1-2010,           !- Name
  ,                                       !- Default Construction Set Name
  {9821538a-77ad-49fe-8d54-de7b4f8b83b0}, !- Default Schedule Set Name
  {9192f740-968f-4574-b0b3-f6e3eb39d7cc}, !- Group Rendering Name
  {f575d0fa-25e0-42c1-8674-dffa4921bea2}, !- Design Specification Outdoor Air Object Name
  Office,                                 !- Standards Building Type
  BreakRoom;                              !- Standards Space Type

OS:Rendering:Color,
  {c76deb6b-459a-4d1d-a712-b1ba1dee509d}, !- Handle
  Rendering Color 1,                      !- Name
  230,                                    !- Rendering Red Value
  157,                                    !- Rendering Green Value
  120;                                    !- Rendering Blue Value

OS:SpaceType,
  {a9482e59-97ba-4541-803e-9a072d235abf}, !- Handle
  Office ClosedOffice - 90.1-2010,        !- Name
  ,                                       !- Default Construction Set Name
  {0cd0fcc7-a493-4f6d-afad-799e1a151b7e}, !- Default Schedule Set Name
  {30e07ceb-088b-4af4-9bf8-f37434f19068}, !- Group Rendering Name
  {aff213b6-abd2-48bb-8b78-30a7024849ae}, !- Design Specification Outdoor Air Object Name
  Office,                                 !- Standards Building Type
  ClosedOffice;                           !- Standards Space Type

OS:Rendering:Color,
  {e25154cb-65b9-4faa-97ef-e49b10cf1763}, !- Handle
  Rendering Color 2,                      !- Name
  120,                                    !- Rendering Red Value
  230,                                    !- Rendering Green Value
  199;                                    !- Rendering Blue Value

OS:SpaceType,
  {90a263a1-15c9-4336-8e3d-efdc38ec3f96}, !- Handle
  Office Conference - 90.1-2010,          !- Name
  ,                                       !- Default Construction Set Name
  {0ff14163-b889-45f8-acba-b686d69c0ffb}, !- Default Schedule Set Name
  {100ec4b9-f920-432e-a8e5-df4f8d5e5ba6}, !- Group Rendering Name
  {79fc1044-ff68-415a-a5ed-d71dc8d96d55}, !- Design Specification Outdoor Air Object Name
  Office,                                 !- Standards Building Type
  Conference;                             !- Standards Space Type

OS:Rendering:Color,
  {0dd50299-aec5-4821-ad67-a143e3cc3702}, !- Handle
  Rendering Color 3,                      !- Name
  230,                                    !- Rendering Red Value
  196,                                    !- Rendering Green Value
  120;                                    !- Rendering Blue Value

OS:SpaceType,
  {e8ba9d1b-9920-447a-8e13-e11049f49862}, !- Handle
  Office Corridor - 90.1-2010,            !- Name
  ,                                       !- Default Construction Set Name
  {074a6925-e5ba-40a9-9fdb-249e4f966289}, !- Default Schedule Set Name
  {37eb613f-8521-4821-8efa-cebc8c0ed212}, !- Group Rendering Name
  {dcfda438-4e09-46fe-816e-fe570c9be4cf}, !- Design Specification Outdoor Air Object Name
  Office,                                 !- Standards Building Type
  Corridor;                               !- Standards Space Type

OS:Rendering:Color,
  {3e918f1b-8452-4377-b55b-45bd35796bd3}, !- Handle
  Rendering Color 4,                      !- Name
  169,                                    !- Rendering Red Value
  31,                                     !- Rendering Green Value
  31;                                     !- Rendering Blue Value

OS:SpaceType,
  {3aa67287-a649-40dc-932d-75503c2b93c2}, !- Handle
  Office Elec/MechRoom - 90.1-2010,       !- Name
  ,                                       !- Default Construction Set Name
  {8206ce3e-5d10-4bcd-858a-85811d025989}, !- Default Schedule Set Name
  {fcba3b62-cef0-4caf-bf14-7db3f38ae4bc}, !- Group Rendering Name
  {11c91aed-81a9-47ea-84c6-04c23b47b30c}, !- Design Specification Outdoor Air Object Name
  Office,                                 !- Standards Building Type
  Elec/MechRoom;                          !- Standards Space Type

OS:Rendering:Color,
  {e7a351e5-b985-49d7-a506-228f24dee841}, !- Handle
  Rendering Color 5,                      !- Name
  41,                                     !- Rendering Red Value
  31,                                     !- Rendering Green Value
  169;                                    !- Rendering Blue Value

OS:SpaceType,
  {c4ce75a8-5635-4951-9bb0-13680a705ca8}, !- Handle
  Office IT_Room - 90.1-2010,             !- Name
  ,                                       !- Default Construction Set Name
  {5c22211d-f5d0-4d05-8e0d-b64e2a505f57}, !- Default Schedule Set Name
  {d3bd52e8-b3ca-4ec0-952b-beb3008cdc5d}, !- Group Rendering Name
  {5ef67e79-95d7-4ff9-82ab-f446039738eb}, !- Design Specification Outdoor Air Object Name
  Office,                                 !- Standards Building Type
  IT_Room;                                !- Standards Space Type

OS:Rendering:Color,
  {c89498f6-c7f1-4995-a39b-931fcc7d87ae}, !- Handle
  Rendering Color 6,                      !- Name
  41,                                     !- Rendering Red Value
  31,                                     !- Rendering Green Value
  169;                                    !- Rendering Blue Value

OS:SpaceType,
  {0ae50887-5ba8-4d01-a8f1-13c89cf4d349}, !- Handle
  Office Lobby - 90.1-2010,               !- Name
  ,                                       !- Default Construction Set Name
  {c67558d1-a516-4c80-8168-018deac00bfd}, !- Default Schedule Set Name
  {6d7c48a3-bbdb-430f-8c3e-89a813cd4e77}, !- Group Rendering Name
  {8f9bab4f-d4dd-4c96-ae6f-f0138775f9e1}, !- Design Specification Outdoor Air Object Name
  Office,                                 !- Standards Building Type
  Lobby;                                  !- Standards Space Type

OS:Rendering:Color,
  {4c4a0038-b767-4cb7-9f0b-5309a541355d}, !- Handle
  Rendering Color 7,                      !- Name
  230,                                    !- Rendering Red Value
  157,                                    !- Rendering Green Value
  120;                                    !- Rendering Blue Value

OS:SpaceType,
  {9c4a01f2-527f-40db-a608-114d3a574e0b}, !- Handle
  Office OpenOffice - 90.1-2010,          !- Name
  ,                                       !- Default Construction Set Name
  {ec1e7770-af23-4e5e-bd3b-c296b10466db}, !- Default Schedule Set Name
  {9f52d220-372e-4ea9-aad1-31ace9b7b8eb}, !- Group Rendering Name
  {4f0c34de-94cc-461d-be15-7ba478c65471}, !- Design Specification Outdoor Air Object Name
  Office,                                 !- Standards Building Type
  OpenOffice;                             !- Standards Space Type

OS:Rendering:Color,
  {cddab569-9f98-4a1a-ba7b-323478e892d6}, !- Handle
  Rendering Color 8,                      !- Name
  120,                                    !- Rendering Red Value
  230,                                    !- Rendering Green Value
  199;                                    !- Rendering Blue Value

OS:SpaceType,
  {52a7e2a4-4065-4b5b-a4c0-4ea2354857ad}, !- Handle
  Office PrintRoom - 90.1-2010,           !- Name
  ,                                       !- Default Construction Set Name
  {1332bccd-49de-4d86-a9c0-64b73d8e6040}, !- Default Schedule Set Name
  {de27f0e4-f94a-456a-b371-ab3b3963e456}, !- Group Rendering Name
  {5221af97-67ce-4524-9abc-075f6e5d707e}, !- Design Specification Outdoor Air Object Name
  Office,                                 !- Standards Building Type
  PrintRoom;                              !- Standards Space Type

OS:Rendering:Color,
  {7d89b7c8-1a04-4fc8-96c4-1c161bdb3408}, !- Handle
  Rendering Color 9,                      !- Name
  41,                                     !- Rendering Red Value
  31,                                     !- Rendering Green Value
  169;                                    !- Rendering Blue Value

OS:SpaceType,
  {6fad2291-b9dd-4bee-8946-bb87f84ce151}, !- Handle
  Office Restroom - 90.1-2010,            !- Name
  ,                                       !- Default Construction Set Name
  {6ad0e3bd-ceee-42ef-94ad-66e6f9edb4d9}, !- Default Schedule Set Name
  {b0780736-8d66-4503-8f51-06bc6ea899cf}, !- Group Rendering Name
  {15d09700-d7ef-48d1-a74a-306a4c99bc9e}, !- Design Specification Outdoor Air Object Name
  Office,                                 !- Standards Building Type
  Restroom;                               !- Standards Space Type

OS:Rendering:Color,
  {128e23ce-b134-4fdd-9d00-ba9c27cf5099}, !- Handle
  Rendering Color 10,                     !- Name
  169,                                    !- Rendering Red Value
  169,                                    !- Rendering Green Value
  31;                                     !- Rendering Blue Value

OS:SpaceType,
  {daacd4d9-e64c-430e-900b-424a5ca271ab}, !- Handle
  Office Stair - 90.1-2010,               !- Name
  ,                                       !- Default Construction Set Name
  {42b49bd6-6dd0-4914-af1a-8ac85f3c1164}, !- Default Schedule Set Name
  {2764183a-67e1-4b9c-bad5-bf6961d6e343}, !- Group Rendering Name
  {39d95497-3d34-4657-951f-05a82a6d8c2e}, !- Design Specification Outdoor Air Object Name
  Office,                                 !- Standards Building Type
  Stair;                                  !- Standards Space Type

OS:Rendering:Color,
  {89f19679-71b1-46a0-a676-0d2dea433a46}, !- Handle
  Rendering Color 11,                     !- Name
  230,                                    !- Rendering Red Value
  157,                                    !- Rendering Green Value
  120;                                    !- Rendering Blue Value

OS:SpaceType,
  {65400c24-645f-4e00-87eb-680fa7fd7ba8}, !- Handle
  Office Storage - 90.1-2010,             !- Name
  ,                                       !- Default Construction Set Name
  {8c1b308f-5361-450d-a342-c0c4856f4fcd}, !- Default Schedule Set Name
  {ef454a79-0160-4227-81ca-49ea827084f7}, !- Group Rendering Name
  {77b12e1f-7103-4cac-9d5a-f472316d04aa}, !- Design Specification Outdoor Air Object Name
  Office,                                 !- Standards Building Type
  Storage;                                !- Standards Space Type

OS:Rendering:Color,
  {55ac636b-ef97-498e-9b62-56191151209d}, !- Handle
  Rendering Color 12,                     !- Name
  120,                                    !- Rendering Red Value
  149,                                    !- Rendering Green Value
  230;                                    !- Rendering Blue Value

OS:SpaceType,
  {96c31eb7-fe8f-4609-b37c-94d5fa8e8eaa}, !- Handle
  Office Vending - 90.1-2010,             !- Name
  ,                                       !- Default Construction Set Name
  {9da33212-4ada-465f-8754-e6804bdb455f}, !- Default Schedule Set Name
  {20368ac3-afb5-448e-a3d6-10489f799818}, !- Group Rendering Name
  {fbe72f81-1eb2-4162-a793-59d32f0c9e46}, !- Design Specification Outdoor Air Object Name
  Office,                                 !- Standards Building Type
  Vending;                                !- Standards Space Type

OS:Rendering:Color,
  {205f47d2-7111-4049-af69-723c4ecf7f1b}, !- Handle
  Rendering Color 13,                     !- Name
  230,                                    !- Rendering Red Value
  157,                                    !- Rendering Green Value
  120;                                    !- Rendering Blue Value

OS:SpaceType,
  {23199fd8-d602-4cce-af17-0f6819269904}, !- Handle
  Office WholeBuilding - Sm Office - 90.1-2010, !- Name
  ,                                       !- Default Construction Set Name
  {41da64c4-8492-47ff-abb7-cb10977f74df}, !- Default Schedule Set Name
  {1d1779ae-b227-4462-8563-930d3ed9d01c}, !- Group Rendering Name
  {7050c1c0-490d-4031-bac3-d528d2d39c65}, !- Design Specification Outdoor Air Object Name
  Office,                                 !- Standards Building Type
  WholeBuilding - Sm Office;              !- Standards Space Type

OS:Rendering:Color,
  {fb29ef5c-8e97-4bb2-accb-fa55d6ce4111}, !- Handle
  Rendering Color 14,                     !- Name
  120,                                    !- Rendering Red Value
  230,                                    !- Rendering Green Value
  199;                                    !- Rendering Blue Value

OS:People:Definition,
  {86d8ce84-fde0-4078-8f43-4a484b04643b}, !- Handle
  Office BreakRoom People Definition,     !- Name
  People/Area,                            !- Number of People Calculation Method
  ,                                       !- Number of People {people}
  0.538195520835486,                      !- People per Space Floor Area {person/m2}
  ,                                       !- Space Floor Area per Person {m2/person}
  0.3;                                    !- Fraction Radiant

OS:People,
  {18277d7b-e304-4e75-8626-f2cf6535c8d5}, !- Handle
  Office BreakRoom People,                !- Name
  {86d8ce84-fde0-4078-8f43-4a484b04643b}, !- People Definition Name
  {5510995d-b4fc-4ae9-802e-c2197b21f946}, !- Space or SpaceType Name
  ,                                       !- Number of People Schedule Name
  ,                                       !- Activity Level Schedule Name
  ,                                       !- Surface Name/Angle Factor List Name
  {3c1d9879-eaf4-4387-985d-fd894525e4d8}, !- Work Efficiency Schedule Name
  {40668b47-3b7b-4c86-ae25-542ed7b4e7dd}, !- Clothing Insulation Schedule Name
  {05f9fcec-f666-413a-9f84-95c76604f1a3}; !- Air Velocity Schedule Name

OS:Schedule:Ruleset,
  {40668b47-3b7b-4c86-ae25-542ed7b4e7dd}, !- Handle
  Clothing Schedule,                      !- Name
  {c6c7076f-7ab1-4a1f-9b93-b99a9a221c00}, !- Schedule Type Limits Name
  {9759b3f6-1c5d-4cb8-afde-e391ebe6e528}; !- Default Day Schedule Name

OS:Schedule:Day,
  {9759b3f6-1c5d-4cb8-afde-e391ebe6e528}, !- Handle
  Clothing Schedule Default Winter Clothes, !- Name
  {c6c7076f-7ab1-4a1f-9b93-b99a9a221c00}, !- Schedule Type Limits Name
  ,                                       !- Interpolate to Timestep
  24,                                     !- Hour 1
  0,                                      !- Minute 1
  1;                                      !- Value Until Time 1

OS:Schedule:Rule,
  {dfe01992-b5ef-43a0-84f4-263b326f7c05}, !- Handle
  Schedule Rule 1,                        !- Name
  {40668b47-3b7b-4c86-ae25-542ed7b4e7dd}, !- Schedule Ruleset Name
  0,                                      !- Rule Order
  {fc1d4a87-36b4-49b4-8752-3cfe17417236}, !- Day Schedule Name
  ,                                       !- Apply Sunday
  ,                                       !- Apply Monday
  ,                                       !- Apply Tuesday
  ,                                       !- Apply Wednesday
  ,                                       !- Apply Thursday
  ,                                       !- Apply Friday
  ,                                       !- Apply Saturday
  ,                                       !- Apply Holiday
  DateRange,                              !- Date Specification Type
  5,                                      !- Start Month
  1,                                      !- Start Day
  9,                                      !- End Month
  30;                                     !- End Day

OS:Schedule:Day,
  {fc1d4a87-36b4-49b4-8752-3cfe17417236}, !- Handle
  Clothing Schedule Summer Clothes,       !- Name
  {c6c7076f-7ab1-4a1f-9b93-b99a9a221c00}, !- Schedule Type Limits Name
  ,                                       !- Interpolate to Timestep
  24,                                     !- Hour 1
  0,                                      !- Minute 1
  0.5;                                    !- Value Until Time 1

OS:ScheduleTypeLimits,
  {c6c7076f-7ab1-4a1f-9b93-b99a9a221c00}, !- Handle
  ClothingInsulation,                     !- Name
  0,                                      !- Lower Limit Value
  ,                                       !- Upper Limit Value
  Continuous,                             !- Numeric Type
  ClothingInsulation;                     !- Unit Type

OS:Schedule:Ruleset,
  {05f9fcec-f666-413a-9f84-95c76604f1a3}, !- Handle
  Air Velocity Schedule,                  !- Name
  {5e8eb63f-253d-4471-8ef5-20598ea9d75c}, !- Schedule Type Limits Name
  {bc1282c1-e03d-41d4-b331-3e678780b163}; !- Default Day Schedule Name

OS:Schedule:Day,
  {bc1282c1-e03d-41d4-b331-3e678780b163}, !- Handle
  Air Velocity Schedule Default,          !- Name
  {5e8eb63f-253d-4471-8ef5-20598ea9d75c}, !- Schedule Type Limits Name
  ,                                       !- Interpolate to Timestep
  24,                                     !- Hour 1
  0,                                      !- Minute 1
  0.2;                                    !- Value Until Time 1

OS:ScheduleTypeLimits,
  {5e8eb63f-253d-4471-8ef5-20598ea9d75c}, !- Handle
  Velocity,                               !- Name
  0,                                      !- Lower Limit Value
  ,                                       !- Upper Limit Value
  Continuous,                             !- Numeric Type
  Velocity;                               !- Unit Type

OS:Schedule:Ruleset,
  {3c1d9879-eaf4-4387-985d-fd894525e4d8}, !- Handle
  Work Efficiency Schedule,               !- Name
  {cc614208-d921-4bac-9a90-701c858efe4b}, !- Schedule Type Limits Name
  {7118f437-61d6-4008-b44c-29b930a6c36f}; !- Default Day Schedule Name

OS:Schedule:Day,
  {7118f437-61d6-4008-b44c-29b930a6c36f}, !- Handle
  Work Efficiency Schedule Default,       !- Name
  {cc614208-d921-4bac-9a90-701c858efe4b}, !- Schedule Type Limits Name
  ,                                       !- Interpolate to Timestep
  24,                                     !- Hour 1
  0,                                      !- Minute 1
  0;                                      !- Value Until Time 1

OS:ScheduleTypeLimits,
  {cc614208-d921-4bac-9a90-701c858efe4b}, !- Handle
  Fractional,                             !- Name
  0,                                      !- Lower Limit Value
  1,                                      !- Upper Limit Value
  Continuous;                             !- Numeric Type

OS:Lights:Definition,
  {e664d055-df45-4d28-97d6-17a01fb0dab9}, !- Handle
  Office BreakRoom Lights Definition,     !- Name
  Watts/Area,                             !- Design Level Calculation Method
  ,                                       !- Lighting Level {W}
  7.8576546041981,                        !- Watts per Space Floor Area {W/m2}
  ,                                       !- Watts per Person {W/person}
  0.4,                                    !- Fraction Radiant
  0.2,                                    !- Fraction Visible
  0.4;                                    !- Return Air Fraction

OS:Lights,
  {8a3ecd09-dd2a-4408-8891-bb5cd46ca1a9}, !- Handle
  Office BreakRoom Lights,                !- Name
  {e664d055-df45-4d28-97d6-17a01fb0dab9}, !- Lights Definition Name
  {5510995d-b4fc-4ae9-802e-c2197b21f946}; !- Space or SpaceType Name

OS:ElectricEquipment:Definition,
  {135924a9-a5ee-469e-8b60-11c00e586df7}, !- Handle
  Office BreakRoom Elec Equip Definition, !- Name
  Watts/Area,                             !- Design Level Calculation Method
  ,                                       !- Design Level {W}
  48.0070404585254,                       !- Watts per Space Floor Area {W/m2}
  ,                                       !- Watts per Person {W/person}
  ,                                       !- Fraction Latent
  0.5;                                    !- Fraction Radiant

OS:ElectricEquipment,
  {7440086b-ce0b-4e11-acaa-8c576d12ef15}, !- Handle
  Office BreakRoom Elec Equip,            !- Name
  {135924a9-a5ee-469e-8b60-11c00e586df7}, !- Electric Equipment Definition Name
  {5510995d-b4fc-4ae9-802e-c2197b21f946}; !- Space or SpaceType Name

OS:DesignSpecification:OutdoorAir,
  {f575d0fa-25e0-42c1-8674-dffa4921bea2}, !- Handle
  Office BreakRoom Ventilation,           !- Name
  Sum,                                    !- Outdoor Air Method
  0.002359737216,                         !- Outdoor Air Flow per Person {m3/s-person}
  0.0003048,                              !- Outdoor Air Flow per Floor Area {m3/s-m2}
  ,                                       !- Outdoor Air Flow Rate {m3/s}
  ,                                       !- Outdoor Air Flow Air Changes per Hour {1/hr}
  ;                                       !- Outdoor Air Flow Rate Fraction Schedule Name

OS:SpaceInfiltration:DesignFlowRate,
  {cf549c5f-a37c-4568-be7f-435859552eb5}, !- Handle
  Office BreakRoom Infiltration,          !- Name
  {5510995d-b4fc-4ae9-802e-c2197b21f946}, !- Space or SpaceType Name
  ,                                       !- Schedule Name
  Flow/ExteriorArea,                      !- Design Flow Rate Calculation Method
  ,                                       !- Design Flow Rate {m3/s}
  ,                                       !- Flow per Space Floor Area {m3/s-m2}
  0.000226568,                            !- Flow per Exterior Surface Area {m3/s-m2}
  ,                                       !- Air Changes per Hour {1/hr}
  ,                                       !- Constant Term Coefficient
  ,                                       !- Temperature Term Coefficient
  ,                                       !- Velocity Term Coefficient
  ;                                       !- Velocity Squared Term Coefficient

OS:DefaultScheduleSet,
  {9821538a-77ad-49fe-8d54-de7b4f8b83b0}, !- Handle
  Office BreakRoom Schedule Set,          !- Name
  ,                                       !- Hours of Operation Schedule Name
  {ef85f39c-786f-41f6-adf5-c6a86701ec6a}, !- Number of People Schedule Name
  {736c246d-480e-421e-8a7a-f7accb616071}, !- People Activity Level Schedule Name
  {7e9985bf-051f-47f7-826d-8120d4b4f2c3}, !- Lighting Schedule Name
  {beb934a3-843e-42e7-aad9-4605bd50b3dc}, !- Electric Equipment Schedule Name
  ,                                       !- Gas Equipment Schedule Name
  ,                                       !- Hot Water Equipment Schedule Name
  {49ba29c6-5ce4-4efb-8568-9fbb7beb3f13}, !- Infiltration Schedule Name
  ,                                       !- Steam Equipment Schedule Name
  ;                                       !- Other Equipment Schedule Name

OS:Schedule:Ruleset,
  {ef85f39c-786f-41f6-adf5-c6a86701ec6a}, !- Handle
  OfficeMedium BLDG_OCC_SCH,              !- Name
  {cc614208-d921-4bac-9a90-701c858efe4b}, !- Schedule Type Limits Name
  {79060714-c9f7-4fe0-b675-ff7004a5cf8a}, !- Default Day Schedule Name
  {6c41e2e4-607a-4d5a-9a3f-42b633562c9e}, !- Summer Design Day Schedule Name
  {fcd63267-1386-4573-b187-d22c96ab6b61}; !- Winter Design Day Schedule Name

OS:Schedule:Day,
  {79060714-c9f7-4fe0-b675-ff7004a5cf8a}, !- Handle
  OfficeMedium BLDG_OCC_SCH Default,      !- Name
  {cc614208-d921-4bac-9a90-701c858efe4b}, !- Schedule Type Limits Name
  ,                                       !- Interpolate to Timestep
  6,                                      !- Hour 1
  0,                                      !- Minute 1
  0,                                      !- Value Until Time 1
  18,                                     !- Hour 2
  0,                                      !- Minute 2
  0.05,                                   !- Value Until Time 2
  24,                                     !- Hour 3
  0,                                      !- Minute 3
  0;                                      !- Value Until Time 3

OS:Schedule:Rule,
  {ac3e5fce-dca3-4313-a715-86126d239aec}, !- Handle
  Schedule Rule 2,                        !- Name
  {ef85f39c-786f-41f6-adf5-c6a86701ec6a}, !- Schedule Ruleset Name
  1,                                      !- Rule Order
  {0e012a7b-27f9-4408-8e05-b51182f46fde}, !- Day Schedule Name
  ,                                       !- Apply Sunday
  ,                                       !- Apply Monday
  ,                                       !- Apply Tuesday
  ,                                       !- Apply Wednesday
  ,                                       !- Apply Thursday
  ,                                       !- Apply Friday
  Yes,                                    !- Apply Saturday
  ,                                       !- Apply Holiday
  DateRange,                              !- Date Specification Type
  1,                                      !- Start Month
  1,                                      !- Start Day
  12,                                     !- End Month
  31;                                     !- End Day

OS:Schedule:Day,
  {0e012a7b-27f9-4408-8e05-b51182f46fde}, !- Handle
  OfficeMedium BLDG_OCC_SCH Sat Day,      !- Name
  {cc614208-d921-4bac-9a90-701c858efe4b}, !- Schedule Type Limits Name
  ,                                       !- Interpolate to Timestep
  6,                                      !- Hour 1
  0,                                      !- Minute 1
  0,                                      !- Value Until Time 1
  8,                                      !- Hour 2
  0,                                      !- Minute 2
  0.1,                                    !- Value Until Time 2
  12,                                     !- Hour 3
  0,                                      !- Minute 3
  0.3,                                    !- Value Until Time 3