
OS:Version,
  {5a30d003-a5ef-4c22-88c8-5c11df8ef6b5}, !- Handle
  3.0.1;                                  !- Version Identifier

OS:Site,
  {712342ad-8cf5-45f8-924d-2ffe5af32f9d}, !- Handle
  Denver Intl Ap,                         !- Name
  39.83,                                  !- Latitude {deg}
  -104.65,                                !- Longitude {deg}
  -7,                                     !- Time Zone {hr}
  1650,                                   !- Elevation {m}
  City;                                   !- Terrain

OS:YearDescription,
  {3fc8aa30-51ca-41e4-8de1-0a38cfefdfea}, !- Handle
  ,                                       !- Calendar Year
  Sunday;                                 !- Day of Week for Start Day

OS:ClimateZones,
  {2f7c975b-5256-4fd9-8042-f5d2868095ae}, !- Handle
  ASHRAE,                                 !- Climate Zone Institution Name 1
  ANSI/ASHRAE Standard 169,               !- Climate Zone Document Name 1
  2006,                                   !- Climate Zone Document Year 1
  5B,                                     !- Climate Zone Value 1
  CEC,                                    !- Climate Zone Institution Name 2
  California Climate Zone Descriptions,   !- Climate Zone Document Name 2
  1995,                                   !- Climate Zone Document Year 2
  ;                                       !- Climate Zone Value 2

OS:Facility,
  {47df2389-0deb-4f65-a8aa-dc5b6df4d25e}; !- Handle

OS:SimulationControl,
  {0f9f6611-6360-488b-8620-f3eba88580a8}, !- Handle
  ,                                       !- Do Zone Sizing Calculation
  ,                                       !- Do System Sizing Calculation
  ,                                       !- Do Plant Sizing Calculation
  No,                                     !- Run Simulation for Sizing Periods
  Yes;                                    !- Run Simulation for Weather File Run Periods

OS:Sizing:Parameters,
  {76895540-69a3-4d1a-b65f-03651d98d2e4}, !- Handle
  1.25,                                   !- Heating Sizing Factor
  1.15;                                   !- Cooling Sizing Factor

OS:Timestep,
  {b4039c1a-45a2-4b4f-bfff-883339fbf464}, !- Handle
  6;                                      !- Number of Timesteps per Hour

OS:ShadowCalculation,
  {b28518fa-69d9-4733-8cc0-1429cd6f42e9}, !- Handle
  PolygonClipping,                        !- Shading Calculation Method
  ,                                       !- Shading Calculation Update Frequency Method
  20,                                     !- Shading Calculation Update Frequency
  15000,                                  !- Maximum Figures in Shadow Overlap Calculations
  ,                                       !- Polygon Clipping Algorithm
  512,                                    !- Pixel Counting Resolution
  ,                                       !- Sky Diffuse Modeling Algorithm
  No,                                     !- Output External Shading Calculation Results
  No,                                     !- Disable Self-Shading Within Shading Zone Groups
  No;                                     !- Disable Self-Shading From Shading Zone Groups to Other Zones

OS:HeatBalanceAlgorithm,
  {424a4dc3-5ce6-418e-b1a0-c131736ad4ab}, !- Handle
  ConductionTransferFunction,             !- Algorithm
  200;                                    !- Surface Temperature Upper Limit {C}

OS:RunPeriod,
  {d1742228-452a-488b-9824-6b3950018785}, !- Handle
  Run Period 1,                           !- Name
  1,                                      !- Begin Month
  1,                                      !- Begin Day of Month
  12,                                     !- End Month
  31,                                     !- End Day of Month
  ,                                       !- Use Weather File Holidays and Special Days
  ,                                       !- Use Weather File Daylight Saving Period
  ,                                       !- Apply Weekend Holiday Rule
  ,                                       !- Use Weather File Rain Indicators
  ,                                       !- Use Weather File Snow Indicators
  ;                                       !- Number of Times Runperiod to be Repeated

OS:LifeCycleCost:Parameters,
  {cdcc9f8f-b9cd-4221-aaa6-4d0182a51c32}, !- Handle
  ,                                       !- Analysis Type
  ,                                       !- Discounting Convention
  ,                                       !- Inflation Approach
  ,                                       !- Real Discount Rate
  ,                                       !- Nominal Discount Rate
  ,                                       !- Inflation
  ,                                       !- Base Date Month
  ,                                       !- Base Date Year
  ,                                       !- Service Date Month
  ,                                       !- Service Date Year
  ;                                       !- Length of Study Period in Years

OS:Building,
  {3acef3af-b2e8-4c95-a553-71efa640ee91}, !- Handle
  90.1-2004|SecondarySchool,              !- Name
  ,                                       !- Building Sector Type
  ,                                       !- North Axis {deg}
  ,                                       !- Nominal Floor to Floor Height {m}
  ,                                       !- Space Type Name
  {b3259616-2030-4f97-a463-d8938ac4b402}, !- Default Construction Set Name
  ,                                       !- Default Schedule Set Name
  ,                                       !- Standards Number of Stories
  ,                                       !- Standards Number of Above Ground Stories
  ,                                       !- Standards Template
  SecondarySchool;                        !- Standards Building Type

OS:SpaceType,
  {9e93b296-b4a6-4498-9e43-8d5bd42b1af2}, !- Handle
  SecondarySchool Kitchen - 90.1-2004,    !- Name
  ,                                       !- Default Construction Set Name
  {1d97a6c4-5524-4d41-9880-cb054b013d21}, !- Default Schedule Set Name
  {914d0b52-3c22-4b66-a350-4c87b4352ef9}, !- Group Rendering Name
  {c2bc69e4-111d-4bab-9d5b-a884f21071e5}, !- Design Specification Outdoor Air Object Name
  ,                                       !- Standards Template
  SecondarySchool,                        !- Standards Building Type
  Kitchen;                                !- Standards Space Type

OS:Rendering:Color,
  {914d0b52-3c22-4b66-a350-4c87b4352ef9}, !- Handle
  SecondarySchool Kitchen,                !- Name
  78,                                     !- Rendering Red Value
  222,                                    !- Rendering Green Value
  133;                                    !- Rendering Blue Value

OS:SpaceType,
  {c8c60a2f-e3d0-48c2-9721-843c22b9fd3a}, !- Handle
  SecondarySchool Restroom - 90.1-2004,   !- Name
  ,                                       !- Default Construction Set Name
  {ba5cb49d-3bfd-4876-8619-dd7e2c25664b}, !- Default Schedule Set Name
  {13432239-44b6-4ddd-9c34-f5481ba0aafa}, !- Group Rendering Name
  {394aff18-5800-47b8-9d81-ebf251d52f22}, !- Design Specification Outdoor Air Object Name
  ,                                       !- Standards Template
  SecondarySchool,                        !- Standards Building Type
  Restroom;                               !- Standards Space Type

OS:Rendering:Color,
  {13432239-44b6-4ddd-9c34-f5481ba0aafa}, !- Handle
  SecondarySchool Restroom,               !- Name
  169,                                    !- Rendering Red Value
  169,                                    !- Rendering Green Value
  31;                                     !- Rendering Blue Value

OS:SpaceType,
  {4504f170-f563-43c1-8a3e-b8dc8d266d0e}, !- Handle
  SecondarySchool Lobby - 90.1-2004,      !- Name
  ,                                       !- Default Construction Set Name
  {e75d4723-a0b5-41c0-8fcf-5b9862df6ce2}, !- Default Schedule Set Name
  {ea2a03b3-8d4b-4976-a89c-c8905030cf09}, !- Group Rendering Name
  {01328a78-8d10-4980-9095-94a02f07f32a}, !- Design Specification Outdoor Air Object Name
  ,                                       !- Standards Template
  SecondarySchool,                        !- Standards Building Type
  Lobby;                                  !- Standards Space Type

OS:Rendering:Color,
  {ea2a03b3-8d4b-4976-a89c-c8905030cf09}, !- Handle
  SecondarySchool Lobby,                  !- Name
  230,                                    !- Rendering Red Value
  157,                                    !- Rendering Green Value
  120;                                    !- Rendering Blue Value

OS:SpaceType,
  {2dd2d8e3-c794-4359-8b8e-da6c5798b2d4}, !- Handle
  SecondarySchool Cafeteria - 90.1-2004,  !- Name
  ,                                       !- Default Construction Set Name
  {d99c82f1-477d-4029-a613-0bfea7996823}, !- Default Schedule Set Name
  {4c9acc73-129f-4a4e-b3fb-17ed01014b4a}, !- Group Rendering Name
  {d699ad2f-213f-4eac-8223-269fddadf97a}, !- Design Specification Outdoor Air Object Name
  ,                                       !- Standards Template
  SecondarySchool,                        !- Standards Building Type
  Cafeteria;                              !- Standards Space Type

OS:Rendering:Color,
  {4c9acc73-129f-4a4e-b3fb-17ed01014b4a}, !- Handle
  SecondarySchool Cafeteria,              !- Name
  31,                                     !- Rendering Red Value
  169,                                    !- Rendering Green Value
  34;                                     !- Rendering Blue Value

OS:SpaceType,
  {f7a1f00a-292c-44e9-849c-21e82bf60825}, !- Handle
  SecondarySchool Mechanical - 90.1-2004, !- Name
  ,                                       !- Default Construction Set Name
  {06faddf8-6bf3-410f-9264-412161a376f3}, !- Default Schedule Set Name
  {630a31b6-f362-46c0-a3c9-b12bb097be3d}, !- Group Rendering Name
  {4c1bb7a0-d1bd-4d9c-81bd-fe18aa3ae719}, !- Design Specification Outdoor Air Object Name
  ,                                       !- Standards Template
  SecondarySchool,                        !- Standards Building Type
  Mechanical;                             !- Standards Space Type

OS:Rendering:Color,
  {630a31b6-f362-46c0-a3c9-b12bb097be3d}, !- Handle
  SecondarySchool Mechanical,             !- Name
  41,                                     !- Rendering Red Value
  31,                                     !- Rendering Green Value
  169;                                    !- Rendering Blue Value

OS:SpaceType,
  {de34912e-9ee6-481f-961e-59c19f9aeef7}, !- Handle
  SecondarySchool Library - 90.1-2004,    !- Name
  ,                                       !- Default Construction Set Name
  {0c6a9fe1-fadf-45df-bc7f-f3a83a49fb7d}, !- Default Schedule Set Name
  {7438d856-5938-4674-acbc-bd03dcb0a815}, !- Group Rendering Name
  {9b959db6-a3a1-443b-be7e-2070cae745e9}, !- Design Specification Outdoor Air Object Name
  ,                                       !- Standards Template
  SecondarySchool,                        !- Standards Building Type
  Library;                                !- Standards Space Type

OS:Rendering:Color,
  {7438d856-5938-4674-acbc-bd03dcb0a815}, !- Handle
  SecondarySchool Library,                !- Name
  230,                                    !- Rendering Red Value
  196,                                    !- Rendering Green Value
  120;                                    !- Rendering Blue Value

OS:SpaceType,
  {58b66f21-cd35-4287-856d-7cc321077e74}, !- Handle
  SecondarySchool ComputerRoom - 90.1-2004, !- Name
  ,                                       !- Default Construction Set Name
  {752c8c26-f333-46ae-a93c-dbbfd1b446d4}, !- Default Schedule Set Name
  {3fbf8666-5662-419f-a048-b81f3cbcc48c}, !- Group Rendering Name
  {5366a40f-ef3b-43ae-91e6-8416b7eeb91d}, !- Design Specification Outdoor Air Object Name
  ,                                       !- Standards Template
  SecondarySchool,                        !- Standards Building Type
  ComputerRoom;                           !- Standards Space Type

OS:Rendering:Color,
  {3fbf8666-5662-419f-a048-b81f3cbcc48c}, !- Handle
  SecondarySchool ComputerRoom,           !- Name
  120,                                    !- Rendering Red Value
  230,                                    !- Rendering Green Value
  199;                                    !- Rendering Blue Value

OS:SpaceType,
  {4300c5f0-f398-449f-9074-d3f1af6cbf72}, !- Handle
  SecondarySchool Auditorium - 90.1-2004, !- Name
  ,                                       !- Default Construction Set Name
  {67500e3d-d327-4a35-8cf5-ac977300b101}, !- Default Schedule Set Name
  {aa2193f7-b130-4ad1-8503-3e24a0f75126}, !- Group Rendering Name
  {3d548f8e-9903-4e2a-9bbf-dc733b086515}, !- Design Specification Outdoor Air Object Name
  ,                                       !- Standards Template
  SecondarySchool,                        !- Standards Building Type
  Auditorium;                             !- Standards Space Type

OS:Rendering:Color,
  {aa2193f7-b130-4ad1-8503-3e24a0f75126}, !- Handle
  SecondarySchool Auditorium,             !- Name
  230,                                    !- Rendering Red Value
  196,                                    !- Rendering Green Value
  120;                                    !- Rendering Blue Value

OS:SpaceType,
  {956b6bbb-138c-4fff-84e0-278a082cecc2}, !- Handle
  SecondarySchool Office - 90.1-2004,     !- Name
  ,                                       !- Default Construction Set Name
  {f3801945-3e20-4091-8270-03a832266313}, !- Default Schedule Set Name
  {c76c082e-eaa4-402f-8143-f7c80048691f}, !- Group Rendering Name
  {b596a168-7d17-4c7f-b14b-57f53c5cd95e}, !- Design Specification Outdoor Air Object Name
  ,                                       !- Standards Template
  SecondarySchool,                        !- Standards Building Type
  Office;                                 !- Standards Space Type

OS:Rendering:Color,
  {c76c082e-eaa4-402f-8143-f7c80048691f}, !- Handle
  SecondarySchool Office,                 !- Name
  120,                                    !- Rendering Red Value
  230,                                    !- Rendering Green Value
  199;                                    !- Rendering Blue Value

OS:SpaceType,
  {60a0cce7-4c2c-4cf4-a8e4-1451ce0ffabf}, !- Handle
  SecondarySchool Gym - 90.1-2004,        !- Name
  ,                                       !- Default Construction Set Name
  {f7adeea9-38d2-4063-93ee-c312048395fb}, !- Default Schedule Set Name
  {e2683512-27f8-449e-9c32-602db8ea0326}, !- Group Rendering Name
  {289b9ad1-1801-48c4-a2b6-fc364c62a110}, !- Design Specification Outdoor Air Object Name
  ,                                       !- Standards Template
  SecondarySchool,                        !- Standards Building Type
  Gym;                                    !- Standards Space Type

OS:Rendering:Color,
  {e2683512-27f8-449e-9c32-602db8ea0326}, !- Handle
  SecondarySchool Gym,                    !- Name
  154,                                    !- Rendering Red Value
  230,                                    !- Rendering Green Value
  120;                                    !- Rendering Blue Value

OS:SpaceType,
  {21685f51-e15b-4a80-95b6-20859374b633}, !- Handle
  SecondarySchool Corridor - 90.1-2004,   !- Name
  ,                                       !- Default Construction Set Name
  {2bd60d17-7680-4999-9620-baac065b047d}, !- Default Schedule Set Name
  {0c8a3df2-93f7-4328-85f6-3eb7a6b31a93}, !- Group Rendering Name
  {7776afe9-35e5-474e-b34b-297f6ca3ed88}, !- Design Specification Outdoor Air Object Name
  ,                                       !- Standards Template
  SecondarySchool,                        !- Standards Building Type
  Corridor;                               !- Standards Space Type

OS:Rendering:Color,
  {0c8a3df2-93f7-4328-85f6-3eb7a6b31a93}, !- Handle
  SecondarySchool Corridor,               !- Name
  169,                                    !- Rendering Red Value
  31,                                     !- Rendering Green Value
  31;                                     !- Rendering Blue Value

OS:SpaceType,
  {b1849b12-4d1f-4807-b554-8fd487eab18e}, !- Handle
  SecondarySchool Classroom - 90.1-2004,  !- Name
  ,                                       !- Default Construction Set Name
  {4d154026-896d-4520-8ea1-979eab45148f}, !- Default Schedule Set Name
  {e4092a36-0f2a-423e-8377-7661ccf14652}, !- Group Rendering Name
  {2888f47b-0a88-4af0-9597-05f6a4537aa0}, !- Design Specification Outdoor Air Object Name
  ,                                       !- Standards Template
  SecondarySchool,                        !- Standards Building Type
  Classroom;                              !- Standards Space Type

OS:Rendering:Color,
  {e4092a36-0f2a-423e-8377-7661ccf14652}, !- Handle
  SecondarySchool Classroom,              !- Name
  120,                                    !- Rendering Red Value
  230,                                    !- Rendering Green Value
  199;                                    !- Rendering Blue Value

OS:BuildingStory,
  {9a2eaae7-c6b4-4eab-b7e8-6e6904823ce7}, !- Handle
  Story Ground,                           !- Name
  0,                                      !- Nominal Z Coordinate {m}
  3.9624,                                 !- Nominal Floor to Floor Height {m}
  ,                                       !- Default Construction Set Name
  ,                                       !- Default Schedule Set Name
  {7f907833-047a-4313-9460-ac46c8e8b14b}; !- Group Rendering Name

OS:Space,
  {eeda7ca1-8816-46c6-868d-2804195c43c2}, !- Handle
  SecondarySchool Classroom A  - Story Ground, !- Name
  {b1849b12-4d1f-4807-b554-8fd487eab18e}, !- Space Type Name
  ,                                       !- Default Construction Set Name
  ,                                       !- Default Schedule Set Name
  -0,                                     !- Direction of Relative North {deg}
  -25.4451496170835,                      !- X Origin {m}
  -5.23627358296785,                      !- Y Origin {m}
  0,                                      !- Z Origin {m}
  {9a2eaae7-c6b4-4eab-b7e8-6e6904823ce7}, !- Building Story Name
  {124d79c9-66ed-4a22-8f42-fa0865d511d4}; !- Thermal Zone Name

OS:Surface,
  {685f1698-1ed2-4eb7-9483-6b90ab2d161b}, !- Handle
  Surface 1,                              !- Name
  Floor,                                  !- Surface Type
  ,                                       !- Construction Name
  {eeda7ca1-8816-46c6-868d-2804195c43c2}, !- Space Name
  Ground,                                 !- Outside Boundary Condition
  ,                                       !- Outside Boundary Condition Object
  NoSun,                                  !- Sun Exposure
  NoWind,                                 !- Wind Exposure
  ,                                       !- View Factor to Ground
  ,                                       !- Number of Vertices
  -4.9737991503207e-14, 8.88178419700125e-16, 0, !- X,Y,Z Vertex 1 {m}
  -4.9737991503207e-14, 3.07107193168857, 0, !- X,Y,Z Vertex 2 {m}
  45.9966667867436, 3.07107193168857, 0,  !- X,Y,Z Vertex 3 {m}
  45.9966667867436, 8.88178419700125e-16, 0; !- X,Y,Z Vertex 4 {m}

OS:Surface,
  {8337fc24-609a-4b39-bac6-0b26e7f94422}, !- Handle
  Surface 2,                              !- Name
  Wall,                                   !- Surface Type
  ,                                       !- Construction Name
  {eeda7ca1-8816-46c6-868d-2804195c43c2}, !- Space Name
  Outdoors,                               !- Outside Boundary Condition
  ,                                       !- Outside Boundary Condition Object
  SunExposed,                             !- Sun Exposure
  WindExposed,                            !- Wind Exposure
  ,                                       !- View Factor to Ground
  ,                                       !- Number of Vertices
  -4.9737991503207e-14, 3.07107193168857, 3.9624, !- X,Y,Z Vertex 1 {m}
  -4.9737991503207e-14, 3.07107193168857, 0, !- X,Y,Z Vertex 2 {m}
  -4.9737991503207e-14, 8.88178419700125e-16, 0, !- X,Y,Z Vertex 3 {m}
  -4.9737991503207e-14, 8.88178419700125e-16, 3.9624; !- X,Y,Z Vertex 4 {m}

OS:Surface,
  {5f373676-e55d-4aad-8df9-d8e684ddb77f}, !- Handle
  Surface 3,                              !- Name
  Wall,                                   !- Surface Type
  ,                                       !- Construction Name
  {eeda7ca1-8816-46c6-868d-2804195c43c2}, !- Space Name
  Surface,                                !- Outside Boundary Condition
  {b4c1c7a1-bef3-4f84-93c0-c51097f5c2ab}, !- Outside Boundary Condition Object
  NoSun,                                  !- Sun Exposure
  NoWind,                                 !- Wind Exposure
  ,                                       !- View Factor to Ground
  ,                                       !- Number of Vertices
  45.9966667867436, 3.07107193168857, 3.9624, !- X,Y,Z Vertex 1 {m}
  45.9966667867436, 3.07107193168857, 0,  !- X,Y,Z Vertex 2 {m}
  -4.9737991503207e-14, 3.07107193168857, 0, !- X,Y,Z Vertex 3 {m}
  -4.9737991503207e-14, 3.07107193168857, 3.9624; !- X,Y,Z Vertex 4 {m}

OS:Surface,
  {5888e175-7183-41da-8540-c7d8954d12cf}, !- Handle
  Surface 4,                              !- Name
  Wall,                                   !- Surface Type
  ,                                       !- Construction Name
  {eeda7ca1-8816-46c6-868d-2804195c43c2}, !- Space Name
  Surface,                                !- Outside Boundary Condition
  {d60581c2-cf5e-42f9-9f7f-e14e5378d5f2}, !- Outside Boundary Condition Object
  NoSun,                                  !- Sun Exposure
  NoWind,                                 !- Wind Exposure
  ,                                       !- View Factor to Ground
  ,                                       !- Number of Vertices
  45.9966667867436, 1.77635683940025e-15, 3.9624, !- X,Y,Z Vertex 1 {m}
  45.9966667867436, 1.77635683940025e-15, 0, !- X,Y,Z Vertex 2 {m}
  45.9966667867436, 3.07107193168857, 0,  !- X,Y,Z Vertex 3 {m}
  45.9966667867436, 3.07107193168857, 3.9624; !- X,Y,Z Vertex 4 {m}

OS:Surface,
  {fb2c2c63-7ec7-4661-8b76-462e75747485}, !- Handle
  Surface 5,                              !- Name
  Wall,                                   !- Surface Type
  ,                                       !- Construction Name
  {eeda7ca1-8816-46c6-868d-2804195c43c2}, !- Space Name
  Outdoors,                               !- Outside Boundary Condition
  ,                                       !- Outside Boundary Condition Object
  SunExposed,                             !- Sun Exposure
  WindExposed,                            !- Wind Exposure
  ,                                       !- View Factor to Ground
  ,                                       !- Number of Vertices
  -4.9737991503207e-14, 8.88178419700125e-16, 3.9624, !- X,Y,Z Vertex 1 {m}
  -4.9737991503207e-14, 8.88178419700125e-16, 0, !- X,Y,Z Vertex 2 {m}
  45.9966667867436, 8.88178419700125e-16, 0, !- X,Y,Z Vertex 3 {m}
  45.9966667867436, 8.88178419700125e-16, 3.9624; !- X,Y,Z Vertex 4 {m}

OS:Surface,
  {40abb04a-c217-4f54-a42a-0ee4bc830f65}, !- Handle
  Surface 6,                              !- Name
  RoofCeiling,                            !- Surface Type
  ,                                       !- Construction Name
  {eeda7ca1-8816-46c6-868d-2804195c43c2}, !- Space Name
  Outdoors,                               !- Outside Boundary Condition
  ,                                       !- Outside Boundary Condition Object
  SunExposed,                             !- Sun Exposure
  WindExposed,                            !- Wind Exposure
  ,                                       !- View Factor to Ground
  ,                                       !- Number of Vertices
  45.9966667867436, 8.88178419700125e-16, 3.9624, !- X,Y,Z Vertex 1 {m}
  45.9966667867436, 3.07107193168857, 3.9624, !- X,Y,Z Vertex 2 {m}
  -4.9737991503207e-14, 3.07107193168857, 3.9624, !- X,Y,Z Vertex 3 {m}
  -4.9737991503207e-14, 8.88178419700125e-16, 3.9624; !- X,Y,Z Vertex 4 {m}

OS:ThermalZone,
  {124d79c9-66ed-4a22-8f42-fa0865d511d4}, !- Handle
  Zone SecondarySchool Classroom A  - Story Ground, !- Name
  1,                                      !- Multiplier
  ,                                       !- Ceiling Height {m}
  ,                                       !- Volume {m3}
  ,                                       !- Floor Area {m2}
  ,                                       !- Zone Inside Convection Algorithm
  ,                                       !- Zone Outside Convection Algorithm
  ,                                       !- Zone Conditioning Equipment List Name
  {9d5c71d3-6346-46c5-96f8-34d26b0f7c44}, !- Zone Air Inlet Port List
  {7ca5cd46-7900-4b04-a365-1b858ae95ca8}, !- Zone Air Exhaust Port List
  {8a42d64c-cf87-4737-be57-d0da41e5bd15}, !- Zone Air Node Name
  {3a9355f7-a988-4757-90ba-a254051aaf4b}, !- Zone Return Air Port List
  ,                                       !- Primary Daylighting Control Name
  ,                                       !- Fraction of Zone Controlled by Primary Daylighting Control
  ,                                       !- Secondary Daylighting Control Name
  ,                                       !- Fraction of Zone Controlled by Secondary Daylighting Control
  ,                                       !- Illuminance Map Name
  {e392916d-a423-4a6b-a589-393ad26521bc}, !- Group Rendering Name
  {bdc919af-38ef-470e-89d1-511dfee85cdb}, !- Thermostat Name
  No;                                     !- Use Ideal Air Loads

OS:Node,
  {0ceea5b7-3b5a-4db8-bda2-c456fd3726c3}, !- Handle
  Zone SecondarySchool Classroom A  - Story Ground Zone Air Node, !- Name
  {8a42d64c-cf87-4737-be57-d0da41e5bd15}, !- Inlet Port
  ;                                       !- Outlet Port

OS:Connection,
  {8a42d64c-cf87-4737-be57-d0da41e5bd15}, !- Handle
  {e8530a9d-0d17-48a8-bc37-9e5f824c93a1}, !- Name
  {124d79c9-66ed-4a22-8f42-fa0865d511d4}, !- Source Object
  11,                                     !- Outlet Port
  {0ceea5b7-3b5a-4db8-bda2-c456fd3726c3}, !- Target Object
  2;                                      !- Inlet Port

OS:PortList,
  {9d5c71d3-6346-46c5-96f8-34d26b0f7c44}, !- Handle
  {6dba17ce-ee3d-4c4e-aee0-da17c47e918e}, !- Name
  {124d79c9-66ed-4a22-8f42-fa0865d511d4}, !- HVAC Component
  {222874d8-ab2e-46e1-972d-e4d06648d0fc}; !- Port 1

OS:PortList,
  {7ca5cd46-7900-4b04-a365-1b858ae95ca8}, !- Handle
  {55d89efa-6442-45df-bc0f-2b1b47529375}, !- Name
  {124d79c9-66ed-4a22-8f42-fa0865d511d4}; !- HVAC Component

OS:PortList,
  {3a9355f7-a988-4757-90ba-a254051aaf4b}, !- Handle
  {980912fe-b8bc-482a-89f7-1a1aa0bb5dbb}, !- Name
  {124d79c9-66ed-4a22-8f42-fa0865d511d4}, !- HVAC Component
  {8c43d07d-f4e1-406d-b0ff-6ff54dc1208f}; !- Port 1

OS:Sizing:Zone,
  {ea49e2d9-2865-46a6-943b-b484dca07778}, !- Handle
  {124d79c9-66ed-4a22-8f42-fa0865d511d4}, !- Zone or ZoneList Name
  SupplyAirTemperature,                   !- Zone Cooling Design Supply Air Temperature Input Method
  12.7777777777778,                       !- Zone Cooling Design Supply Air Temperature {C}
  11.11,                                  !- Zone Cooling Design Supply Air Temperature Difference {deltaC}
  SupplyAirTemperature,                   !- Zone Heating Design Supply Air Temperature Input Method
  50.0000000000001,                       !- Zone Heating Design Supply Air Temperature {C}
  11.11,                                  !- Zone Heating Design Supply Air Temperature Difference {deltaC}
  0.0085,                                 !- Zone Cooling Design Supply Air Humidity Ratio {kg-H2O/kg-air}
  0.008,                                  !- Zone Heating Design Supply Air Humidity Ratio {kg-H2O/kg-air}
  ,                                       !- Zone Heating Sizing Factor
  ,                                       !- Zone Cooling Sizing Factor
  DesignDay,                              !- Cooling Design Air Flow Method
  ,                                       !- Cooling Design Air Flow Rate {m3/s}
  ,                                       !- Cooling Minimum Air Flow per Zone Floor Area {m3/s-m2}
  ,                                       !- Cooling Minimum Air Flow {m3/s}
  ,                                       !- Cooling Minimum Air Flow Fraction
  DesignDay,                              !- Heating Design Air Flow Method
  ,                                       !- Heating Design Air Flow Rate {m3/s}
  ,                                       !- Heating Maximum Air Flow per Zone Floor Area {m3/s-m2}
  ,                                       !- Heating Maximum Air Flow {m3/s}
  ,                                       !- Heating Maximum Air Flow Fraction
  No,                                     !- Account for Dedicated Outdoor Air System
  NeutralSupplyAir,                       !- Dedicated Outdoor Air System Control Strategy
  autosize,                               !- Dedicated Outdoor Air Low Setpoint Temperature for Design {C}
  autosize;                               !- Dedicated Outdoor Air High Setpoint Temperature for Design {C}

OS:ZoneHVAC:EquipmentList,
  {d1b309dd-b514-47a4-b084-cebcde7f3b8a}, !- Handle
  Zone SecondarySchool Classroom A  - Story Ground Zone HVAC Equipment List, !- Name
  {124d79c9-66ed-4a22-8f42-fa0865d511d4}, !- Thermal Zone
  ,                                       !- Load Distribution Scheme
  {cadd6641-5062-4810-b20b-f926f43c9947}, !- Zone Equipment 1
  1,                                      !- Zone Equipment Cooling Sequence 1
  1,                                      !- Zone Equipment Heating or No-Load Sequence 1
  ,                                       !- Zone Equipment Sequential Cooling Fraction Schedule Name 1
  ;                                       !- Zone Equipment Sequential Heating Fraction Schedule Name 1

OS:Space,
  {ab300880-e258-44d4-9484-ebd710efd338}, !- Handle