
OS:Version,
  {baf4a370-82a9-40bd-a8bc-8490336c9b5d}, !- Handle
  3.8.0;                                  !- Version Identifier

OS:Building,
  {a54d475f-12c2-4dfe-a4b7-d05f25ba3254}, !- Handle
  ComStock 90.1-2016|Laboratory,          !- Name
  ,                                       !- Building Sector Type
  ,                                       !- North Axis {deg}
  ,                                       !- Nominal Floor to Floor Height {m}
  ,                                       !- Space Type Name
  ,                                       !- Default Construction Set Name
  ;                                       !- Default Schedule Set Name

OS:SpaceType,
  {760ef569-3233-4f07-a1fb-a39026778323}, !- Handle
  Laboratory Equipment corridor,          !- Name
  ,                                       !- Default Construction Set Name
  ,                                       !- Default Schedule Set Name
  ,                                       !- Group Rendering Name
  ,                                       !- Design Specification Outdoor Air Object Name
  ,                                       !- Standards Template
  Laboratory,                             !- Standards Building Type
  Equipment corridor;                     !- Standards Space Type

OS:SpaceType,
  {31462a45-5634-4f3f-9f52-60d42b37bcb7}, !- Handle
  Laboratory Lab with fume hood,          !- Name
  ,                                       !- Default Construction Set Name
  ,                                       !- Default Schedule Set Name
  ,                                       !- Group Rendering Name
  ,                                       !- Design Specification Outdoor Air Object Name
  ,                                       !- Standards Template
  Laboratory,                             !- Standards Building Type
  Lab with fume hood;                     !- Standards Space Type

OS:SpaceType,
  {1d44bbcb-c15a-4f82-8c70-279ec487e5cc}, !- Handle
  Laboratory Open lab,                    !- Name
  ,                                       !- Default Construction Set Name
  ,                                       !- Default Schedule Set Name
  ,                                       !- Group Rendering Name
  ,                                       !- Design Specification Outdoor Air Object Name
  ,                                       !- Standards Template
  Laboratory,                             !- Standards Building Type
  Open lab;                               !- Standards Space Type

OS:SpaceType,
  {ffaf359f-1f07-46a3-808b-c3ee5f6e6c0b}, !- Handle
  Laboratory Office,                      !- Name
  ,                                       !- Default Construction Set Name
  ,                                       !- Default Schedule Set Name
  ,                                       !- Group Rendering Name
  ,                                       !- Design Specification Outdoor Air Object Name
  ,                                       !- Standards Template
  Laboratory,                             !- Standards Building Type
  Office;                                 !- Standards Space Type

OS:Site,
  {f981f642-f645-4184-90ea-54ecb81181a3}, !- Handle
  Chicago Ohare Intl Ap_IL_USA,           !- Name
  41.98,                                  !- Latitude {deg}
  -87.92,                                 !- Longitude {deg}
  -6,                                     !- Time Zone {hr}
  201,                                    !- Elevation {m}
  City;                                   !- Terrain

OS:YearDescription,
  {286d52b4-ac67-4922-b45b-e99be1b2fa25}, !- Handle
  2019,                                   !- Calendar Year
  ,                                       !- Day of Week for Start Day
  ;                                       !- Is Leap Year

OS:ClimateZones,
  {ed807fb1-d8cc-4fe4-81f9-ecc4a3e663b3}, !- Handle
  ASHRAE,                                 !- Climate Zone Institution Name 1
  ANSI/ASHRAE Standard 169,               !- Climate Zone Document Name 1
  2006,                                   !- Climate Zone Document Year 1
  5A;                                     !- Climate Zone Value 1


OS:BuildingStory,
  {305da5ba-ccf6-4e1a-8566-cac440ce0719}, !- Handle
  Story ground,                           !- Name
  0,                                      !- Nominal Z Coordinate {m}
  3.048,                                  !- Nominal Floor to Floor Height {m}
  ,                                       !- Default Construction Set Name
  ,                                       !- Default Schedule Set Name
  ;                                       !- Group Rendering Name

OS:Space,
  {3417c122-f37f-47da-84a0-6fa39bce4889}, !- Handle
  Laboratory Open lab A end_a - Story ground, !- Name
  {1d44bbcb-c15a-4f82-8c70-279ec487e5cc}, !- Space Type Name
  ,                                       !- Default Construction Set Name
  ,                                       !- Default Schedule Set Name
  -0,                                     !- Direction of Relative North {deg}
  -34.03505222561,                        !- X Origin {m}
  -25.5902648312857,                      !- Y Origin {m}
  0,                                      !- Z Origin {m}
  {305da5ba-ccf6-4e1a-8566-cac440ce0719}, !- Building Story Name
  {6c763be2-5b77-431b-92ab-0b50b0dc0e97}; !- Thermal Zone Name

OS:Surface,
  {acca0f46-8201-448f-8e96-f40bb163ff7a}, !- Handle
  Surface 1,                              !- Name
  Floor,                                  !- Surface Type
  ,                                       !- Construction Name
  {3417c122-f37f-47da-84a0-6fa39bce4889}, !- Space Name
  Ground,                                 !- Outside Boundary Condition
  ,                                       !- Outside Boundary Condition Object
  NoSun,                                  !- Sun Exposure
  NoWind,                                 !- Wind Exposure
  ,                                       !- View Factor to Ground
  ,                                       !- Number of Vertices
  -7.105427357601e-15, 1.06581410364015e-14, 0, !- X,Y,Z Vertex 1 {m}
  -7.105427357601e-15, 4.57200000000001, 0, !- X,Y,Z Vertex 2 {m}
  4.572, 4.57200000000001, 0,             !- X,Y,Z Vertex 3 {m}
  4.572, 1.06581410364015e-14, 0;         !- X,Y,Z Vertex 4 {m}

OS:Surface,
  {600dd72c-b19b-40ab-8e14-45bcfa1265a9}, !- Handle
  Surface 2,                              !- Name
  Wall,                                   !- Surface Type
  ,                                       !- Construction Name
  {3417c122-f37f-47da-84a0-6fa39bce4889}, !- Space Name
  Outdoors,                               !- Outside Boundary Condition
  ,                                       !- Outside Boundary Condition Object
  SunExposed,                             !- Sun Exposure
  WindExposed,                            !- Wind Exposure
  ,                                       !- View Factor to Ground
  ,                                       !- Number of Vertices
  -7.105427357601e-15, 1.06581410364015e-14, 3.048, !- X,Y,Z Vertex 1 {m}
  -7.105427357601e-15, 4.57200000000001, 3.048, !- X,Y,Z Vertex 2 {m}
  -7.105427357601e-15, 4.57200000000001, 0, !- X,Y,Z Vertex 3 {m}
  -7.105427357601e-15, 1.06581410364015e-14, 0; !- X,Y,Z Vertex 4 {m}

OS:Surface,
  {88839f11-e4fb-4db5-92bf-a2e15b7006d9}, !- Handle
  Surface 3,                              !- Name
  Wall,                                   !- Surface Type
  ,                                       !- Construction Name
  {3417c122-f37f-47da-84a0-6fa39bce4889}, !- Space Name
  Surface,                                !- Outside Boundary Condition
  {027bdd50-28b6-4cbb-971c-f8e69b2d2efd}, !- Outside Boundary Condition Object
  NoSun,                                  !- Sun Exposure
  NoWind,                                 !- Wind Exposure
  ,                                       !- View Factor to Ground
  ,                                       !- Number of Vertices
  4.572, 4.57200000000001, 3.048,         !- X,Y,Z Vertex 1 {m}
  4.572, 4.57200000000001, 0,             !- X,Y,Z Vertex 2 {m}
  -7.105427357601e-15, 4.57200000000001, 0, !- X,Y,Z Vertex 3 {m}
  -7.105427357601e-15, 4.57200000000001, 3.048; !- X,Y,Z Vertex 4 {m}

OS:Surface,
  {c749cdef-01ab-49d6-ab3b-6eba55978fcd}, !- Handle
  Surface 4,                              !- Name
  Wall,                                   !- Surface Type
  ,                                       !- Construction Name
  {3417c122-f37f-47da-84a0-6fa39bce4889}, !- Space Name
  Surface,                                !- Outside Boundary Condition
  {a246955c-ac6d-4581-b0a7-352bd5c6d69b}, !- Outside Boundary Condition Object
  NoSun,                                  !- Sun Exposure
  NoWind,                                 !- Wind Exposure
  ,                                       !- View Factor to Ground
  ,                                       !- Number of Vertices
  4.572, 1.06581410364015e-14, 3.048,     !- X,Y,Z Vertex 1 {m}
  4.572, 1.06581410364015e-14, 0,         !- X,Y,Z Vertex 2 {m}
  4.572, 4.57200000000001, 0,             !- X,Y,Z Vertex 3 {m}
  4.572, 4.57200000000001, 3.048;         !- X,Y,Z Vertex 4 {m}

OS:Surface,
  {532bcf01-8016-4358-9665-e3d67bb51c5f}, !- Handle
  Surface 5,                              !- Name
  Wall,                                   !- Surface Type
  ,                                       !- Construction Name
  {3417c122-f37f-47da-84a0-6fa39bce4889}, !- Space Name
  Outdoors,                               !- Outside Boundary Condition
  ,                                       !- Outside Boundary Condition Object
  SunExposed,                             !- Sun Exposure
  WindExposed,                            !- Wind Exposure
  ,                                       !- View Factor to Ground
  ,                                       !- Number of Vertices
  4.572, 1.06581410364015e-14, 3.048,     !- X,Y,Z Vertex 1 {m}
  -7.105427357601e-15, 1.06581410364015e-14, 3.048, !- X,Y,Z Vertex 2 {m}
  -7.105427357601e-15, 1.06581410364015e-14, 0, !- X,Y,Z Vertex 3 {m}
  4.572, 1.06581410364015e-14, 0;         !- X,Y,Z Vertex 4 {m}

OS:Surface,
  {feec9b35-826c-4de8-b615-408ca25fecf7}, !- Handle
  Surface 6,                              !- Name
  RoofCeiling,                            !- Surface Type
  ,                                       !- Construction Name
  {3417c122-f37f-47da-84a0-6fa39bce4889}, !- Space Name
  Adiabatic,                              !- Outside Boundary Condition
  ,                                       !- Outside Boundary Condition Object
  NoSun,                                  !- Sun Exposure
  NoWind,                                 !- Wind Exposure
  ,                                       !- View Factor to Ground
  ,                                       !- Number of Vertices
  4.572, 1.06581410364015e-14, 3.048,     !- X,Y,Z Vertex 1 {m}
  4.572, 4.57200000000001, 3.048,         !- X,Y,Z Vertex 2 {m}
  -7.105427357601e-15, 4.57200000000001, 3.048, !- X,Y,Z Vertex 3 {m}
  -7.105427357601e-15, 1.06581410364015e-14, 3.048; !- X,Y,Z Vertex 4 {m}

OS:ThermalZone,
  {6c763be2-5b77-431b-92ab-0b50b0dc0e97}, !- Handle
  Zone Laboratory Open lab A end_a - Story ground, !- Name
  1,                                      !- Multiplier
  ,                                       !- Ceiling Height {m}
  ,                                       !- Volume {m3}
  ,                                       !- Floor Area {m2}
  ,                                       !- Zone Inside Convection Algorithm
  ,                                       !- Zone Outside Convection Algorithm
  ,                                       !- Zone Conditioning Equipment List Name
  {27d8cac4-10fd-4391-8b14-057c0307ef50}, !- Zone Air Inlet Port List
  {3bee96f0-30c9-46fd-ad05-97441225b792}, !- Zone Air Exhaust Port List
  {8ac62258-de8a-4c5c-bfec-3b9002170d8e}, !- Zone Air Node Name
  {9847e900-e6bb-4c09-8b9a-dcbeb28ba9ac}, !- Zone Return Air Port List
  ,                                       !- Primary Daylighting Control Name
  ,                                       !- Fraction of Zone Controlled by Primary Daylighting Control
  ,                                       !- Secondary Daylighting Control Name
  ,                                       !- Fraction of Zone Controlled by Secondary Daylighting Control
  ,                                       !- Illuminance Map Name
  ,                                       !- Group Rendering Name
  ,                                       !- Thermostat Name
  No;                                     !- Use Ideal Air Loads

OS:Node,
  {2ce8d0d0-0255-4313-ab2c-97d23e6e35be}, !- Handle
  Node 1,                                 !- Name
  {8ac62258-de8a-4c5c-bfec-3b9002170d8e}, !- Inlet Port
  ;                                       !- Outlet Port

OS:Connection,
  {8ac62258-de8a-4c5c-bfec-3b9002170d8e}, !- Handle
  {6c763be2-5b77-431b-92ab-0b50b0dc0e97}, !- Source Object
  11,                                     !- Outlet Port
  {2ce8d0d0-0255-4313-ab2c-97d23e6e35be}, !- Target Object
  2;                                      !- Inlet Port

OS:PortList,
  {27d8cac4-10fd-4391-8b14-057c0307ef50}, !- Handle
  {6c763be2-5b77-431b-92ab-0b50b0dc0e97}; !- HVAC Component

OS:PortList,
  {3bee96f0-30c9-46fd-ad05-97441225b792}, !- Handle
  {6c763be2-5b77-431b-92ab-0b50b0dc0e97}; !- HVAC Component

OS:PortList,
  {9847e900-e6bb-4c09-8b9a-dcbeb28ba9ac}, !- Handle
  {6c763be2-5b77-431b-92ab-0b50b0dc0e97}; !- HVAC Component

OS:Sizing:Zone,
  {d79b06da-1ed2-4a2a-8564-d2869b51ddea}, !- Handle
  {6c763be2-5b77-431b-92ab-0b50b0dc0e97}, !- Zone or ZoneList Name
  SupplyAirTemperature,                   !- Zone Cooling Design Supply Air Temperature Input Method
  14,                                     !- Zone Cooling Design Supply Air Temperature {C}
  11.11,                                  !- Zone Cooling Design Supply Air Temperature Difference {deltaC}
  SupplyAirTemperature,                   !- Zone Heating Design Supply Air Temperature Input Method
  40,                                     !- Zone Heating Design Supply Air Temperature {C}
  11.11,                                  !- Zone Heating Design Supply Air Temperature Difference {deltaC}
  0.0085,                                 !- Zone Cooling Design Supply Air Humidity Ratio {kg-H2O/kg-air}
  0.008,                                  !- Zone Heating Design Supply Air Humidity Ratio {kg-H2O/kg-air}
  ,                                       !- Zone Heating Sizing Factor
  ,                                       !- Zone Cooling Sizing Factor
  DesignDay,                              !- Cooling Design Air Flow Method
  ,                                       !- Cooling Design Air Flow Rate {m3/s}
  ,                                       !- Cooling Minimum Air Flow per Zone Floor Area {m3/s-m2}
  ,                                       !- Cooling Minimum Air Flow {m3/s}
  ,                                       !- Cooling Minimum Air Flow Fraction
  DesignDay,                              !- Heating Design Air Flow Method
  ,                                       !- Heating Design Air Flow Rate {m3/s}
  ,                                       !- Heating Maximum Air Flow per Zone Floor Area {m3/s-m2}
  ,                                       !- Heating Maximum Air Flow {m3/s}
  ,                                       !- Heating Maximum Air Flow Fraction
  No,                                     !- Account for Dedicated Outdoor Air System
  NeutralSupplyAir,                       !- Dedicated Outdoor Air System Control Strategy
  autosize,                               !- Dedicated Outdoor Air Low Setpoint Temperature for Design {C}
  autosize,                               !- Dedicated Outdoor Air High Setpoint Temperature for Design {C}
  Sensible Load Only No Latent Load,      !- Zone Load Sizing Method
  HumidityRatioDifference,                !- Zone Latent Cooling Design Supply Air Humidity Ratio Input Method
  ,                                       !- Zone Dehumidification Design Supply Air Humidity Ratio {kgWater/kgDryAir}
  0.005,                                  !- Zone Cooling Design Supply Air Humidity Ratio Difference {kgWater/kgDryAir}
  HumidityRatioDifference,                !- Zone Latent Heating Design Supply Air Humidity Ratio Input Method
  ,                                       !- Zone Humidification Design Supply Air Humidity Ratio {kgWater/kgDryAir}
  0.005;                                  !- Zone Humidification Design Supply Air Humidity Ratio Difference {kgWater/kgDryAir}

OS:ZoneHVAC:EquipmentList,
  {0a681f4c-7544-4426-a93f-05aecc7e8754}, !- Handle
  Zone HVAC Equipment List 1,             !- Name
  {6c763be2-5b77-431b-92ab-0b50b0dc0e97}; !- Thermal Zone

OS:Space,
  {f1b59c3e-7932-4833-9e05-7274ab5fd56a}, !- Handle
  Laboratory Open lab B end_a - Story ground, !- Name
  {1d44bbcb-c15a-4f82-8c70-279ec487e5cc}, !- Space Type Name
  ,                                       !- Default Construction Set Name
  ,                                       !- Default Schedule Set Name
  -0,                                     !- Direction of Relative North {deg}
  -34.03505222561,                        !- X Origin {m}
  -21.0182648312857,                      !- Y Origin {m}
  0,                                      !- Z Origin {m}
  {305da5ba-ccf6-4e1a-8566-cac440ce0719}, !- Building Story Name
  {0732ae71-91a6-4879-9c77-ea00af02e673}; !- Thermal Zone Name

OS:Surface,
  {97d199c5-7b1e-4a34-9b40-6d2ae74d38e9}, !- Handle
  Surface 7,                              !- Name
  Floor,                                  !- Surface Type
  ,                                       !- Construction Name
  {f1b59c3e-7932-4833-9e05-7274ab5fd56a}, !- Space Name
  Ground,                                 !- Outside Boundary Condition
  ,                                       !- Outside Boundary Condition Object
  NoSun,                                  !- Sun Exposure
  NoWind,                                 !- Wind Exposure
  ,                                       !- View Factor to Ground
  ,                                       !- Number of Vertices
  -7.105427357601e-15, 1.4210854715202e-14, 0, !- X,Y,Z Vertex 1 {m}
  -7.105427357601e-15, 42.0365296625714, 0, !- X,Y,Z Vertex 2 {m}
  4.572, 42.0365296625714, 0,             !- X,Y,Z Vertex 3 {m}
  4.572, 1.4210854715202e-14, 0;          !- X,Y,Z Vertex 4 {m}

OS:Surface,
  {1f6ad880-05f3-451e-b2c4-e24fffc8f35c}, !- Handle
  Surface 8,                              !- Name
  Wall,                                   !- Surface Type
  ,                                       !- Construction Name
  {f1b59c3e-7932-4833-9e05-7274ab5fd56a}, !- Space Name
  Outdoors,                               !- Outside Boundary Condition
  ,                                       !- Outside Boundary Condition Object
  SunExposed,                             !- Sun Exposure
  WindExposed,                            !- Wind Exposure
  ,                                       !- View Factor to Ground
  ,                                       !- Number of Vertices
  -7.105427357601e-15, 1.4210854715202e-14, 3.048, !- X,Y,Z Vertex 1 {m}
  -7.105427357601e-15, 42.0365296625714, 3.048, !- X,Y,Z Vertex 2 {m}
  -7.105427357601e-15, 42.0365296625714, 0, !- X,Y,Z Vertex 3 {m}
  -7.105427357601e-15, 1.4210854715202e-14, 0; !- X,Y,Z Vertex 4 {m}

OS:Surface,
  {5d9bcb17-62e3-442c-afb2-be65ce26a58e}, !- Handle
  Surface 9,                              !- Name
  Wall,                                   !- Surface Type
  ,                                       !- Construction Name
  {f1b59c3e-7932-4833-9e05-7274ab5fd56a}, !- Space Name
  Surface,                                !- Outside Boundary Condition
  {538d9ac2-443f-4186-9ddc-416ed6aacaa4}, !- Outside Boundary Condition Object
  NoSun,                                  !- Sun Exposure
  NoWind,                                 !- Wind Exposure
  ,                                       !- View Factor to Ground
  ,                                       !- Number of Vertices
  4.572, 42.0365296625714, 3.048,         !- X,Y,Z Vertex 1 {m}
  4.572, 42.0365296625714, 0,             !- X,Y,Z Vertex 2 {m}
  -7.105427357601e-15, 42.0365296625714, 0, !- X,Y,Z Vertex 3 {m}
  -7.105427357601e-15, 42.0365296625714, 3.048; !- X,Y,Z Vertex 4 {m}

OS:Surface,
  {bb701e21-7064-42d7-bd8a-ac03361cb54c}, !- Handle
  Surface 10,                             !- Name
  Wall,                                   !- Surface Type
  ,                                       !- Construction Name
  {f1b59c3e-7932-4833-9e05-7274ab5fd56a}, !- Space Name
  Surface,                                !- Outside Boundary Condition
  {3cfdb2e3-1f86-48ad-bbf4-208d833ed4e9}, !- Outside Boundary Condition Object
  NoSun,                                  !- Sun Exposure
  NoWind,                                 !- Wind Exposure
  ,                                       !- View Factor to Ground
  ,                                       !- Number of Vertices
  4.572, 1.4210854715202e-14, 3.048,      !- X,Y,Z Vertex 1 {m}
  4.572, 1.4210854715202e-14, 0,          !- X,Y,Z Vertex 2 {m}
  4.572, 42.0365296625714, 0,             !- X,Y,Z Vertex 3 {m}
  4.572, 42.0365296625714, 3.048;         !- X,Y,Z Vertex 4 {m}

OS:Surface,
  {027bdd50-28b6-4cbb-971c-f8e69b2d2efd}, !- Handle
  Surface 11,                             !- Name
  Wall,                                   !- Surface Type
  ,                                       !- Construction Name
  {f1b59c3e-7932-4833-9e05-7274ab5fd56a}, !- Space Name
  Surface,                                !- Outside Boundary Condition
  {88839f11-e4fb-4db5-92bf-a2e15b7006d9}, !- Outside Boundary Condition Object
  NoSun,                                  !- Sun Exposure
  NoWind,                                 !- Wind Exposure
  ,                                       !- View Factor to Ground
  ,                                       !- Number of Vertices
  -7.105427357601e-15, 7.105427357601e-15, 3.048, !- X,Y,Z Vertex 1 {m}
  -7.105427357601e-15, 7.105427357601e-15, 0, !- X,Y,Z Vertex 2 {m}
  4.572, 7.105427357601e-15, 0,           !- X,Y,Z Vertex 3 {m}
  4.572, 7.105427357601e-15, 3.048;       !- X,Y,Z Vertex 4 {m}

OS:Surface,
  {46deb087-0b31-40ef-a56c-8524b3bde4b3}, !- Handle
  Surface 12,                             !- Name
  RoofCeiling,                            !- Surface Type
  ,                                       !- Construction Name
  {f1b59c3e-7932-4833-9e05-7274ab5fd56a}, !- Space Name
  Adiabatic,                              !- Outside Boundary Condition
  ,                                       !- Outside Boundary Condition Object
  NoSun,                                  !- Sun Exposure
  NoWind,                                 !- Wind Exposure
  ,                                       !- View Factor to Ground
  ,                                       !- Number of Vertices
  4.572, 1.4210854715202e-14, 3.048,      !- X,Y,Z Vertex 1 {m}
  4.572, 42.0365296625714, 3.048,         !- X,Y,Z Vertex 2 {m}
  -7.105427357601e-15, 42.0365296625714, 3.048, !- X,Y,Z Vertex 3 {m}
  -7.105427357601e-15, 1.4210854715202e-14, 3.048; !- X,Y,Z Vertex 4 {m}

OS:ThermalZone,
  {0732ae71-91a6-4879-9c77-ea00af02e673}, !- Handle
  Zone Laboratory Open lab B end_a - Story ground, !- Name
  1,                                      !- Multiplier
  ,                                       !- Ceiling Height {m}
  ,                                       !- Volume {m3}
  ,                                       !- Floor Area {m2}
  ,                                       !- Zone Inside Convection Algorithm
  ,                                       !- Zone Outside Convection Algorithm
  ,                                       !- Zone Conditioning Equipment List Name
  {976f4b72-67e1-49f6-8617-4872123ebc33}, !- Zone Air Inlet Port List
  {34f34ac8-ccfa-4cd1-9a2d-f0e6b21eba7b}, !- Zone Air Exhaust Port List
  {f623dabd-5034-462c-8785-472c7cc8a2a9}, !- Zone Air Node Name
  {b22fab9d-11e8-47ff-a5ff-bfe276e41a38}, !- Zone Return Air Port List
  ,                                       !- Primary Daylighting Control Name
  ,                                       !- Fraction of Zone Controlled by Primary Daylighting Control
  ,                                       !- Secondary Daylighting Control Name
  ,                                       !- Fraction of Zone Controlled by Secondary Daylighting Control
  ,                                       !- Illuminance Map Name
  ,                                       !- Group Rendering Name
  ,                                       !- Thermostat Name
  No;                                     !- Use Ideal Air Loads

OS:Node,
  {a2a1808c-f20e-4f85-814d-ff48779a8a6f}, !- Handle
  Node 2,                                 !- Name
  {f623dabd-5034-462c-8785-472c7cc8a2a9}, !- Inlet Port
  ;                                       !- Outlet Port

OS:Connection,
  {f623dabd-5034-462c-8785-472c7cc8a2a9}, !- Handle
  {0732ae71-91a6-4879-9c77-ea00af02e673}, !- Source Object
  11,                                     !- Outlet Port
  {a2a1808c-f20e-4f85-814d-ff48779a8a6f}, !- Target Object
  2;                                      !- Inlet Port

OS:PortList,
  {976f4b72-67e1-49f6-8617-4872123ebc33}, !- Handle
  {0732ae71-91a6-4879-9c77-ea00af02e673}; !- HVAC Component

OS:PortList,
  {34f34ac8-ccfa-4cd1-9a2d-f0e6b21eba7b}, !- Handle
  {0732ae71-91a6-4879-9c77-ea00af02e673}; !- HVAC Component

OS:PortList,
  {b22fab9d-11e8-47ff-a5ff-bfe276e41a38}, !- Handle
  {0732ae71-91a6-4879-9c77-ea00af02e673}; !- HVAC Component

OS:Sizing:Zone,
  {331537bf-ab14-46f3-8ace-761e5b464935}, !- Handle
  {0732ae71-91a6-4879-9c77-ea00af02e673}, !- Zone or ZoneList Name
  SupplyAirTemperature,                   !- Zone Cooling Design Supply Air Temperature Input Method
  14,                                     !- Zone Cooling Design Supply Air Temperature {C}
  11.11,                                  !- Zone Cooling Design Supply Air Temperature Difference {deltaC}
  SupplyAirTemperature,                   !- Zone Heating Design Supply Air Temperature Input Method
  40,                                     !- Zone Heating Design Supply Air Temperature {C}
  11.11,                                  !- Zone Heating Design Supply Air Temperature Difference {deltaC}
  0.0085,                                 !- Zone Cooling Design Supply Air Humidity Ratio {kg-H2O/kg-air}
  0.008,                                  !- Zone Heating Design Supply Air Humidity Ratio {kg-H2O/kg-air}
  ,                                       !- Zone Heating Sizing Factor
  ,                                       !- Zone Cooling Sizing Factor
  DesignDay,                              !- Cooling Design Air Flow Method
  ,                                       !- Cooling Design Air Flow Rate {m3/s}
  ,                                       !- Cooling Minimum Air Flow per Zone Floor Area {m3/s-m2}
  ,                                       !- Cooling Minimum Air Flow {m3/s}
  ,                                       !- Cooling Minimum Air Flow Fraction
  DesignDay,                              !- Heating Design Air Flow Method
  ,                                       !- Heating Design Air Flow Rate {m3/s}
  ,                                       !- Heating Maximum Air Flow per Zone Floor Area {m3/s-m2}
  ,                                       !- Heating Maximum Air Flow {m3/s}
  ,                                       !- Heating Maximum Air Flow Fraction
  No,                                     !- Account for Dedicated Outdoor Air System
  NeutralSupplyAir,                       !- Dedicated Outdoor Air System Control Strategy
  autosize,                               !- Dedicated Outdoor Air Low Setpoint Temperature for Design {C}
  autosize,                               !- Dedicated Outdoor Air High Setpoint Temperature for Design {C}
  Sensible Load Only No Latent Load,      !- Zone Load Sizing Method
  HumidityRatioDifference,                !- Zone Latent Cooling Design Supply Air Humidity Ratio Input Method
  ,                                       !- Zone Dehumidification Design Supply Air Humidity Ratio {kgWater/kgDryAir}
  0.005,                                  !- Zone Cooling Design Supply Air Humidity Ratio Difference {kgWater/kgDryAir}
  HumidityRatioDifference,                !- Zone Latent Heating Design Supply Air Humidity Ratio Input Method
  ,                                       !- Zone Humidification Design Supply Air Humidity Ratio {kgWater/kgDryAir}
  0.005;                                  !- Zone Humidification Design Supply Air Humidity Ratio Difference {kgWater/kgDryAir}

OS:ZoneHVAC:EquipmentList,
  {84645f37-ee79-4041-9b55-1001aaae31c2}, !- Handle
  Zone HVAC Equipment List 2,             !- Name
  {0732ae71-91a6-4879-9c77-ea00af02e673}; !- Thermal Zone

OS:Space,
  {19009d10-a008-4b77-9c29-d3073a5a5993}, !- Handle
  Laboratory Open lab C end_a - Story ground, !- Name
  {1d44bbcb-c15a-4f82-8c70-279ec487e5cc}, !- Space Type Name
  ,                                       !- Default Construction Set Name
  ,                                       !- Default Schedule Set Name
  -0,                                     !- Direction of Relative North {deg}
  -34.03505222561,                        !- X Origin {m}
  21.0182648312857,                       !- Y Origin {m}
  0,                                      !- Z Origin {m}
  {305da5ba-ccf6-4e1a-8566-cac440ce0719}, !- Building Story Name
  {e134f11c-9150-435b-a7a0-d47e2a92ce95}; !- Thermal Zone Name

OS:Surface,
  {c6ca6a6b-e9ce-44db-a7ce-7414fb5b5834}, !- Handle
  Surface 13,                             !- Name
  Floor,                                  !- Surface Type
  ,                                       !- Construction Name
  {19009d10-a008-4b77-9c29-d3073a5a5993}, !- Space Name
  Ground,                                 !- Outside Boundary Condition