
OS:Version,
  {25317954-611a-48a4-bc7f-30de90e2fe11}, !- Handle
  3.8.0;                                  !- Version Identifier

OS:Schedule:Constant,
  {50869c79-7374-4bee-92af-452c4e5531fa}, !- Handle
  Always On Discrete,                     !- Name
  {314ed901-78e8-4c34-8978-88579e0f4d1e}, !- Schedule Type Limits Name
  1;                                      !- Value

OS:ScheduleTypeLimits,
  {314ed901-78e8-4c34-8978-88579e0f4d1e}, !- Handle
  Always On Discrete Limits,              !- Name
  0,                                      !- Lower Limit Value
  1,                                      !- Upper Limit Value
  Discrete,                               !- Numeric Type
  Availability;                           !- Unit Type

OS:Site,
  {f981f642-f645-4184-90ea-54ecb81181a3}, !- Handle
  Denver Intl Ap_CO_USA,                  !- Name
  39.83,                                  !- Latitude {deg}
  -104.65,                                !- Longitude {deg}
  -7,                                     !- Time Zone {hr}
  1650,                                   !- Elevation {m}
  ;                                       !- Terrain

OS:YearDescription,
  {286d52b4-ac67-4922-b45b-e99be1b2fa25}, !- Handle
  2019,                                   !- Calendar Year
  ,                                       !- Day of Week for Start Day
  ;                                       !- Is Leap Year

OS:ClimateZones,
  {ed807fb1-d8cc-4fe4-81f9-ecc4a3e663b3}, !- Handle
  ASHRAE,                                 !- Climate Zone Institution Name 1
  ANSI/ASHRAE Standard 169,               !- Climate Zone Document Name 1
  2006,                                   !- Climate Zone Document Year 1
  5B;                                     !- Climate Zone Value 1

OS:Facility,
  {5874d766-9013-445a-b7ba-fbc18548d936}; !- Handle

OS:SimulationControl,
  {58c08c90-257a-4c48-bac8-bc48284aa3da}; !- Handle

OS:Sizing:Parameters,
  {b7f8e5e5-194f-46fb-b696-bf8dbd94d2a1}, !- Handle
  1.25,                                   !- Heating Sizing Factor
  1.15;                                   !- Cooling Sizing Factor

OS:Timestep,
  {7d9cdc89-f88b-48bc-a911-5c24839f5e0f}, !- Handle
  4;                                      !- Number of Timesteps per Hour

OS:ShadowCalculation,
  {4b4398c9-7698-4d5a-8651-280bd02def9b}, !- Handle
  PolygonClipping,                        !- Shading Calculation Method
  ,                                       !- Shading Calculation Update Frequency Method
  20,                                     !- Shading Calculation Update Frequency
  15000,                                  !- Maximum Figures in Shadow Overlap Calculations
  ,                                       !- Polygon Clipping Algorithm
  512,                                    !- Pixel Counting Resolution
  ,                                       !- Sky Diffuse Modeling Algorithm
  No,                                     !- Output External Shading Calculation Results
  No,                                     !- Disable Self-Shading Within Shading Zone Groups
  No;                                     !- Disable Self-Shading From Shading Zone Groups to Other Zones

OS:HeatBalanceAlgorithm,
  {f1ec6801-7d3f-453f-82f7-4587187226a7}, !- Handle
  ConductionTransferFunction,             !- Algorithm
  200;                                    !- Surface Temperature Upper Limit {C}

OS:RunPeriod,
  {61a69a03-a8f4-4d0f-85db-6c628a82e2d2}, !- Handle
  Run Period 1,                           !- Name
  1,                                      !- Begin Month
  1,                                      !- Begin Day of Month
  12,                                     !- End Month
  31,                                     !- End Day of Month
  ,                                       !- Use Weather File Holidays and Special Days
  ,                                       !- Use Weather File Daylight Saving Period
  ,                                       !- Apply Weekend Holiday Rule
  ,                                       !- Use Weather File Rain Indicators
  ,                                       !- Use Weather File Snow Indicators
  ;                                       !- Number of Times Runperiod to be Repeated

OS:LifeCycleCost:Parameters,
  {4156312f-45ac-41e1-8bda-ebb07868e9db}, !- Handle
  ,                                       !- Analysis Type
  ,                                       !- Discounting Convention
  ,                                       !- Inflation Approach
  ,                                       !- Real Discount Rate
  ,                                       !- Nominal Discount Rate
  ,                                       !- Inflation
  ,                                       !- Base Date Month
  ,                                       !- Base Date Year
  ,                                       !- Service Date Month
  ,                                       !- Service Date Year
  ;                                       !- Length of Study Period in Years

OS:RadianceParameters,
  {8262416c-3366-49be-b850-c8bf2a2e2f67}, !- Handle
  1,                                      !- Accumulated Rays per Record
  0,                                      !- Direct Threshold
  1,                                      !- Direct Certainty
  1,                                      !- Direct Jitter
  1,                                      !- Direct Pretest
  6,                                      !- Ambient Bounces VMX
  2,                                      !- Ambient Bounces DMX
  4050,                                   !- Ambient Divisions VMX
  512,                                    !- Ambient Divisions DMX
  256,                                    !- Ambient Supersamples
  0.001,                                  !- Limit Weight VMX
  0.001,                                  !- Limit Weight DMX
  500,                                    !- Klems Sampling Density
  146;                                    !- Sky Discretization Resolution

OS:ProgramControl,
  {6d15cd07-035c-45d0-a623-671450c718a3}; !- Handle

OS:OutputControl:ReportingTolerances,
  {91c73e89-784b-4867-bb28-b609a56b8e48}, !- Handle
  1,                                      !- Tolerance for Time Heating Setpoint Not Met {deltaC}
  1;                                      !- Tolerance for Time Cooling Setpoint Not Met {deltaC}

OS:ConvergenceLimits,
  {cb6bfab2-74c1-4485-b99c-995538d2528f}, !- Handle
  1;                                      !- Minimum System Timestep {minutes}

OS:SurfaceConvectionAlgorithm:Inside,
  {11ad18dd-d471-48ef-88d9-46efb5216de6}, !- Handle
  TARP;                                   !- Algorithm

OS:SurfaceConvectionAlgorithm:Outside,
  {0c1f02f4-28af-46a7-ac53-41fe3fc66141}, !- Handle
  DOE-2;                                  !- Algorithm

OS:ZoneAirHeatBalanceAlgorithm,
  {fa5733e2-b532-4919-a72b-426a91d73b12}, !- Handle
  ThirdOrderBackwardDifference,           !- Algorithm
  ,                                       !- Do Space Heat Balance for Sizing
  ;                                       !- Do Space Heat Balance for Simulation

OS:ZoneAirContaminantBalance,
  {51670a9b-9ae9-42fe-8f9f-02eb7c714cb1}; !- Handle

OS:ZoneCapacitanceMultiplier:ResearchSpecial,
  {c4dc60a1-e8fc-4026-b715-51487c3784e6}, !- Handle
  ,                                       !- Temperature Capacity Multiplier
  ,                                       !- Humidity Capacity Multiplier
  ;                                       !- Carbon Dioxide Capacity Multiplier

OS:WeatherFile,
  {76eeec17-20aa-4bf9-86ac-71c82a8c0c21}, !- Handle
  Denver Intl Ap,                         !- City
  CO,                                     !- State Province Region
  USA,                                    !- Country
  TMY3,                                   !- Data Source
  725650,                                 !- WMO Number
  39.83,                                  !- Latitude {deg}
  -104.65,                                !- Longitude {deg}
  -7,                                     !- Time Zone {hr}
  1650,                                   !- Elevation {m}
  /Users/dgoldwas/Documents/github/nrel/osw2osa/weather/USA_CO_Denver.Intl.AP.725650_TMY3.epw, !- Url
  ;                                       !- Checksum

OS:Site:WaterMainsTemperature,
  {d4b05517-ba1f-478a-ae42-62057f860132}, !- Handle
  Correlation,                            !- Calculation Method
  ,                                       !- Temperature Schedule Name
  10.8,                                   !- Annual Average Outdoor Air Temperature {C}
  23.2;                                   !- Maximum Difference In Monthly Average Outdoor Air Temperatures {deltaC}

OS:SizingPeriod:DesignDay,
  {5cf560fa-b17f-4d28-81de-d63ce0903c43}, !- Handle
  Denver Intl Ap Ann Clg .4% Condns DB=>MWB 1, !- Name
  34.6,                                   !- Maximum Dry-Bulb Temperature {C}
  15.2,                                   !- Daily Dry-Bulb Temperature Range {deltaC}
  83011,                                  !- Barometric Pressure {Pa}
  4.2,                                    !- Wind Speed {m/s}
  80,                                     !- Wind Direction {deg}
  ,                                       !- Sky Clearness
  No,                                     !- Rain Indicator
  No,                                     !- Snow Indicator
  21,                                     !- Day of Month
  7,                                      !- Month
  SummerDesignDay,                        !- Day Type
  No,                                     !- Daylight Saving Time Indicator
  Wetbulb,                                !- Humidity Condition Type
  ,                                       !- Humidity Condition Day Schedule Name
  15.7,                                   !- Wetbulb or DewPoint at Maximum Dry-Bulb {C}
  ,                                       !- Humidity Ratio at Maximum Dry-Bulb {kgWater/kgDryAir}
  ,                                       !- Enthalpy at Maximum Dry-Bulb {J/kg}
  DefaultMultipliers,                     !- Dry-Bulb Temperature Range Modifier Type
  ,                                       !- Dry-Bulb Temperature Range Modifier Day Schedule Name
  ASHRAETau,                              !- Solar Model Indicator
  ,                                       !- Beam Solar Day Schedule Name
  ,                                       !- Diffuse Solar Day Schedule Name
  0.424,                                  !- ASHRAE Clear Sky Optical Depth for Beam Irradiance {dimensionless}
  2.012;                                  !- ASHRAE Clear Sky Optical Depth for Diffuse Irradiance {dimensionless}

OS:SizingPeriod:DesignDay,
  {a1d732d0-525d-4249-bc34-09cde397e5c3}, !- Handle
  Denver Intl Ap Ann Clg .4% Condns WB=>MDB 1, !- Name
  27.3,                                   !- Maximum Dry-Bulb Temperature {C}
  15.2,                                   !- Daily Dry-Bulb Temperature Range {deltaC}
  83011,                                  !- Barometric Pressure {Pa}
  4.2,                                    !- Wind Speed {m/s}
  80,                                     !- Wind Direction {deg}
  ,                                       !- Sky Clearness
  No,                                     !- Rain Indicator
  No,                                     !- Snow Indicator
  21,                                     !- Day of Month
  7,                                      !- Month
  SummerDesignDay,                        !- Day Type
  No,                                     !- Daylight Saving Time Indicator
  Wetbulb,                                !- Humidity Condition Type
  ,                                       !- Humidity Condition Day Schedule Name
  18.3,                                   !- Wetbulb or DewPoint at Maximum Dry-Bulb {C}
  ,                                       !- Humidity Ratio at Maximum Dry-Bulb {kgWater/kgDryAir}
  ,                                       !- Enthalpy at Maximum Dry-Bulb {J/kg}
  DefaultMultipliers,                     !- Dry-Bulb Temperature Range Modifier Type
  ,                                       !- Dry-Bulb Temperature Range Modifier Day Schedule Name
  ASHRAETau,                              !- Solar Model Indicator
  ,                                       !- Beam Solar Day Schedule Name
  ,                                       !- Diffuse Solar Day Schedule Name
  0.424,                                  !- ASHRAE Clear Sky Optical Depth for Beam Irradiance {dimensionless}
  2.012;                                  !- ASHRAE Clear Sky Optical Depth for Diffuse Irradiance {dimensionless}

OS:SizingPeriod:DesignDay,
  {0705b586-d5ef-4173-8a06-8488049d7890}, !- Handle
  Denver Intl Ap Ann Htg 99.6% Condns DB 1, !- Name
  -17.4,                                  !- Maximum Dry-Bulb Temperature {C}
  0,                                      !- Daily Dry-Bulb Temperature Range {deltaC}
  83011,                                  !- Barometric Pressure {Pa}
  3.3,                                    !- Wind Speed {m/s}
  160,                                    !- Wind Direction {deg}
  0,                                      !- Sky Clearness
  No,                                     !- Rain Indicator
  No,                                     !- Snow Indicator
  21,                                     !- Day of Month
  12,                                     !- Month
  WinterDesignDay,                        !- Day Type
  No,                                     !- Daylight Saving Time Indicator
  Wetbulb,                                !- Humidity Condition Type
  ,                                       !- Humidity Condition Day Schedule Name
  -17.4,                                  !- Wetbulb or DewPoint at Maximum Dry-Bulb {C}
  ,                                       !- Humidity Ratio at Maximum Dry-Bulb {kgWater/kgDryAir}
  ,                                       !- Enthalpy at Maximum Dry-Bulb {J/kg}
  DefaultMultipliers,                     !- Dry-Bulb Temperature Range Modifier Type
  ,                                       !- Dry-Bulb Temperature Range Modifier Day Schedule Name
  ASHRAEClearSky;                         !- Solar Model Indicator

OS:Building,
  {b3cd6f16-d17c-4273-97b8-bc98ee26cd6d}, !- Handle
  ComStock 90.1-2013|Laboratory,          !- Name
  ,                                       !- Building Sector Type
  ,                                       !- North Axis {deg}
  ,                                       !- Nominal Floor to Floor Height {m}
  ,                                       !- Space Type Name
  ,                                       !- Default Construction Set Name
  ;                                       !- Default Schedule Set Name

OS:SpaceType,
  {3c7108d5-3b2b-40aa-b610-14c07454f17c}, !- Handle
  Laboratory Equipment corridor,          !- Name
  ,                                       !- Default Construction Set Name
  ,                                       !- Default Schedule Set Name
  ,                                       !- Group Rendering Name
  ,                                       !- Design Specification Outdoor Air Object Name
  ,                                       !- Standards Template
  Laboratory,                             !- Standards Building Type
  Equipment corridor;                     !- Standards Space Type

OS:SpaceType,
  {e29c1cfe-b719-4054-a981-8389a6a08097}, !- Handle
  Laboratory Lab with fume hood,          !- Name
  ,                                       !- Default Construction Set Name
  ,                                       !- Default Schedule Set Name
  ,                                       !- Group Rendering Name
  ,                                       !- Design Specification Outdoor Air Object Name
  ,                                       !- Standards Template
  Laboratory,                             !- Standards Building Type
  Lab with fume hood;                     !- Standards Space Type

OS:SpaceType,
  {79bcaf0e-9c7c-4c58-881e-9b0469ac8484}, !- Handle
  Laboratory Open lab,                    !- Name
  ,                                       !- Default Construction Set Name
  ,                                       !- Default Schedule Set Name
  ,                                       !- Group Rendering Name
  ,                                       !- Design Specification Outdoor Air Object Name
  ,                                       !- Standards Template
  Laboratory,                             !- Standards Building Type
  Open lab;                               !- Standards Space Type

OS:SpaceType,
  {d8538e71-dbbb-45a6-ae51-80f1724536b5}, !- Handle
  Laboratory Office,                      !- Name
  ,                                       !- Default Construction Set Name
  ,                                       !- Default Schedule Set Name
  ,                                       !- Group Rendering Name
  ,                                       !- Design Specification Outdoor Air Object Name
  ,                                       !- Standards Template
  Laboratory,                             !- Standards Building Type
  Office;                                 !- Standards Space Type

OS:BuildingStory,
  {ac98c0a0-4dd5-49d0-a5a9-1e8ba6177cdb}, !- Handle
  Story ground,                           !- Name
  0,                                      !- Nominal Z Coordinate {m}
  3.048,                                  !- Nominal Floor to Floor Height {m}
  ,                                       !- Default Construction Set Name
  ,                                       !- Default Schedule Set Name
  ;                                       !- Group Rendering Name

OS:Space,
  {159aa10f-b668-4bb5-b9e9-c0b703b28ec4}, !- Handle
  Laboratory Open lab A end_a - Story ground, !- Name
  {79bcaf0e-9c7c-4c58-881e-9b0469ac8484}, !- Space Type Name
  ,                                       !- Default Construction Set Name
  ,                                       !- Default Schedule Set Name
  -0,                                     !- Direction of Relative North {deg}
  -39.3002931286778,                      !- X Origin {m}
  -29.5490925779532,                      !- Y Origin {m}
  0,                                      !- Z Origin {m}
  {ac98c0a0-4dd5-49d0-a5a9-1e8ba6177cdb}, !- Building Story Name
  {539e6c2e-b1d6-47f9-ab0a-4a8ddfdbcfec}; !- Thermal Zone Name

OS:Surface,
  {18d8bf32-ed68-4970-9f1b-e294866ee92b}, !- Handle
  Surface 1,                              !- Name
  Floor,                                  !- Surface Type
  ,                                       !- Construction Name
  {159aa10f-b668-4bb5-b9e9-c0b703b28ec4}, !- Space Name
  Ground,                                 !- Outside Boundary Condition
  ,                                       !- Outside Boundary Condition Object
  NoSun,                                  !- Sun Exposure
  NoWind,                                 !- Wind Exposure
  ,                                       !- View Factor to Ground
  ,                                       !- Number of Vertices
  7.105427357601e-15, 3.90798504668055e-14, 0, !- X,Y,Z Vertex 1 {m}
  7.105427357601e-15, 4.57200000000004, 0, !- X,Y,Z Vertex 2 {m}
  4.57200000000001, 4.57200000000004, 0,  !- X,Y,Z Vertex 3 {m}
  4.57200000000001, 3.90798504668055e-14, 0; !- X,Y,Z Vertex 4 {m}

OS:Surface,
  {73c2b4d3-9114-4876-9edb-c83766b53ef7}, !- Handle
  Surface 2,                              !- Name
  Wall,                                   !- Surface Type
  ,                                       !- Construction Name
  {159aa10f-b668-4bb5-b9e9-c0b703b28ec4}, !- Space Name
  Outdoors,                               !- Outside Boundary Condition
  ,                                       !- Outside Boundary Condition Object
  SunExposed,                             !- Sun Exposure
  WindExposed,                            !- Wind Exposure
  ,                                       !- View Factor to Ground
  ,                                       !- Number of Vertices
  7.105427357601e-15, 3.90798504668055e-14, 3.048, !- X,Y,Z Vertex 1 {m}
  7.105427357601e-15, 4.57200000000004, 3.048, !- X,Y,Z Vertex 2 {m}
  7.105427357601e-15, 4.57200000000004, 0, !- X,Y,Z Vertex 3 {m}
  7.105427357601e-15, 3.90798504668055e-14, 0; !- X,Y,Z Vertex 4 {m}

OS:Surface,
  {7a076017-1ef2-424e-8124-c117a07ca080}, !- Handle
  Surface 3,                              !- Name
  Wall,                                   !- Surface Type
  ,                                       !- Construction Name
  {159aa10f-b668-4bb5-b9e9-c0b703b28ec4}, !- Space Name
  Surface,                                !- Outside Boundary Condition
  {99dbaa86-3b81-4fa2-8e88-acb1a25dadad}, !- Outside Boundary Condition Object
  NoSun,                                  !- Sun Exposure
  NoWind,                                 !- Wind Exposure
  ,                                       !- View Factor to Ground
  ,                                       !- Number of Vertices
  4.57200000000001, 4.57200000000004, 3.048, !- X,Y,Z Vertex 1 {m}
  4.57200000000001, 4.57200000000004, 0,  !- X,Y,Z Vertex 2 {m}
  7.105427357601e-15, 4.57200000000004, 0, !- X,Y,Z Vertex 3 {m}
  7.105427357601e-15, 4.57200000000004, 3.048; !- X,Y,Z Vertex 4 {m}

OS:Surface,
  {f365b53f-c4f4-4c60-86ab-1dd8c6facc7b}, !- Handle
  Surface 4,                              !- Name
  Wall,                                   !- Surface Type
  ,                                       !- Construction Name
  {159aa10f-b668-4bb5-b9e9-c0b703b28ec4}, !- Space Name
  Surface,                                !- Outside Boundary Condition
  {643aa174-827c-4bc5-b3e0-45cba8534f7e}, !- Outside Boundary Condition Object
  NoSun,                                  !- Sun Exposure
  NoWind,                                 !- Wind Exposure
  ,                                       !- View Factor to Ground
  ,                                       !- Number of Vertices
  4.57200000000001, 3.90798504668055e-14, 3.048, !- X,Y,Z Vertex 1 {m}
  4.57200000000001, 3.90798504668055e-14, 0, !- X,Y,Z Vertex 2 {m}
  4.57200000000001, 4.57200000000004, 0,  !- X,Y,Z Vertex 3 {m}
  4.57200000000001, 4.57200000000004, 3.048; !- X,Y,Z Vertex 4 {m}

OS:Surface,
  {65b6e600-128f-479f-94d1-f0a7eda10885}, !- Handle
  Surface 5,                              !- Name
  Wall,                                   !- Surface Type
  ,                                       !- Construction Name
  {159aa10f-b668-4bb5-b9e9-c0b703b28ec4}, !- Space Name
  Outdoors,                               !- Outside Boundary Condition
  ,                                       !- Outside Boundary Condition Object
  SunExposed,                             !- Sun Exposure
  WindExposed,                            !- Wind Exposure
  ,                                       !- View Factor to Ground
  ,                                       !- Number of Vertices
  4.57200000000001, 3.90798504668055e-14, 3.048, !- X,Y,Z Vertex 1 {m}
  7.105427357601e-15, 3.90798504668055e-14, 3.048, !- X,Y,Z Vertex 2 {m}
  7.105427357601e-15, 3.90798504668055e-14, 0, !- X,Y,Z Vertex 3 {m}
  4.57200000000001, 3.90798504668055e-14, 0; !- X,Y,Z Vertex 4 {m}

OS:Surface,
  {6f9e9ea6-e12f-4d04-91c4-9892596860a5}, !- Handle
  Surface 6,                              !- Name
  RoofCeiling,                            !- Surface Type
  ,                                       !- Construction Name
  {159aa10f-b668-4bb5-b9e9-c0b703b28ec4}, !- Space Name
  Adiabatic,                              !- Outside Boundary Condition
  ,                                       !- Outside Boundary Condition Object
  NoSun,                                  !- Sun Exposure
  NoWind,                                 !- Wind Exposure
  ,                                       !- View Factor to Ground
  ,                                       !- Number of Vertices
  4.57200000000001, 3.90798504668055e-14, 3.048, !- X,Y,Z Vertex 1 {m}
  4.57200000000001, 4.57200000000004, 3.048, !- X,Y,Z Vertex 2 {m}
  7.105427357601e-15, 4.57200000000004, 3.048, !- X,Y,Z Vertex 3 {m}
  7.105427357601e-15, 3.90798504668055e-14, 3.048; !- X,Y,Z Vertex 4 {m}

OS:ThermalZone,
  {539e6c2e-b1d6-47f9-ab0a-4a8ddfdbcfec}, !- Handle
  Zone Laboratory Open lab A end_a - Story ground, !- Name
  1,                                      !- Multiplier
  ,                                       !- Ceiling Height {m}
  ,                                       !- Volume {m3}
  ,                                       !- Floor Area {m2}
  ,                                       !- Zone Inside Convection Algorithm
  ,                                       !- Zone Outside Convection Algorithm
  ,                                       !- Zone Conditioning Equipment List Name
  {78671e3c-b373-4d89-8f61-e5005dfd1440}, !- Zone Air Inlet Port List
  {e4891c3c-cdd6-4a42-900f-1f87199fae6d}, !- Zone Air Exhaust Port List
  {01370b45-3f1f-4900-957b-7828333ba807}, !- Zone Air Node Name
  {0be5df94-2357-42e2-8c58-ef9955183c73}, !- Zone Return Air Port List
  ,                                       !- Primary Daylighting Control Name
  ,                                       !- Fraction of Zone Controlled by Primary Daylighting Control
  ,                                       !- Secondary Daylighting Control Name
  ,                                       !- Fraction of Zone Controlled by Secondary Daylighting Control
  ,                                       !- Illuminance Map Name
  ,                                       !- Group Rendering Name
  ,                                       !- Thermostat Name
  No;                                     !- Use Ideal Air Loads

OS:Node,
  {a15c1da5-c7f4-4eeb-ab13-e3bb59cafb91}, !- Handle
  Node 1,                                 !- Name
  {01370b45-3f1f-4900-957b-7828333ba807}, !- Inlet Port
  ;                                       !- Outlet Port

OS:Connection,
  {01370b45-3f1f-4900-957b-7828333ba807}, !- Handle
  {539e6c2e-b1d6-47f9-ab0a-4a8ddfdbcfec}, !- Source Object
  11,                                     !- Outlet Port
  {a15c1da5-c7f4-4eeb-ab13-e3bb59cafb91}, !- Target Object
  2;                                      !- Inlet Port

OS:PortList,
  {78671e3c-b373-4d89-8f61-e5005dfd1440}, !- Handle
  {539e6c2e-b1d6-47f9-ab0a-4a8ddfdbcfec}; !- HVAC Component

OS:PortList,
  {e4891c3c-cdd6-4a42-900f-1f87199fae6d}, !- Handle
  {539e6c2e-b1d6-47f9-ab0a-4a8ddfdbcfec}; !- HVAC Component

OS:PortList,
  {0be5df94-2357-42e2-8c58-ef9955183c73}, !- Handle
  {539e6c2e-b1d6-47f9-ab0a-4a8ddfdbcfec}; !- HVAC Component

OS:Sizing:Zone,
  {36b80c0e-f42f-43d6-b813-caff276acf5b}, !- Handle
  {539e6c2e-b1d6-47f9-ab0a-4a8ddfdbcfec}, !- Zone or ZoneList Name
  SupplyAirTemperature,                   !- Zone Cooling Design Supply Air Temperature Input Method
  14,                                     !- Zone Cooling Design Supply Air Temperature {C}
  11.11,                                  !- Zone Cooling Design Supply Air Temperature Difference {deltaC}
  SupplyAirTemperature,                   !- Zone Heating Design Supply Air Temperature Input Method
  40,                                     !- Zone Heating Design Supply Air Temperature {C}
  11.11,                                  !- Zone Heating Design Supply Air Temperature Difference {deltaC}
  0.0085,                                 !- Zone Cooling Design Supply Air Humidity Ratio {kg-H2O/kg-air}
  0.008,                                  !- Zone Heating Design Supply Air Humidity Ratio {kg-H2O/kg-air}
  ,                                       !- Zone Heating Sizing Factor
  ,                                       !- Zone Cooling Sizing Factor
  DesignDay,                              !- Cooling Design Air Flow Method
  ,                                       !- Cooling Design Air Flow Rate {m3/s}
  ,                                       !- Cooling Minimum Air Flow per Zone Floor Area {m3/s-m2}
  ,                                       !- Cooling Minimum Air Flow {m3/s}
  ,                                       !- Cooling Minimum Air Flow Fraction
  DesignDay,                              !- Heating Design Air Flow Method
  ,                                       !- Heating Design Air Flow Rate {m3/s}
  ,                                       !- Heating Maximum Air Flow per Zone Floor Area {m3/s-m2}
  ,                                       !- Heating Maximum Air Flow {m3/s}
  ,                                       !- Heating Maximum Air Flow Fraction
  No,                                     !- Account for Dedicated Outdoor Air System
  NeutralSupplyAir,                       !- Dedicated Outdoor Air System Control Strategy
  autosize,                               !- Dedicated Outdoor Air Low Setpoint Temperature for Design {C}
  autosize,                               !- Dedicated Outdoor Air High Setpoint Temperature for Design {C}
  Sensible Load Only No Latent Load,      !- Zone Load Sizing Method
  HumidityRatioDifference,                !- Zone Latent Cooling Design Supply Air Humidity Ratio Input Method
  ,                                       !- Zone Dehumidification Design Supply Air Humidity Ratio {kgWater/kgDryAir}
  0.005,                                  !- Zone Cooling Design Supply Air Humidity Ratio Difference {kgWater/kgDryAir}
  HumidityRatioDifference,                !- Zone Latent Heating Design Supply Air Humidity Ratio Input Method
  ,                                       !- Zone Humidification Design Supply Air Humidity Ratio {kgWater/kgDryAir}
  0.005;                                  !- Zone Humidification Design Supply Air Humidity Ratio Difference {kgWater/kgDryAir}

OS:ZoneHVAC:EquipmentList,
  {ca0d5d46-4ccc-4498-a2aa-dd54a3089d54}, !- Handle
  Zone HVAC Equipment List 1,             !- Name
  {539e6c2e-b1d6-47f9-ab0a-4a8ddfdbcfec}; !- Thermal Zone

OS:Space,
  {228ac9c0-773d-4513-983b-6d7091dbbd2d}, !- Handle
  Laboratory Open lab B end_a - Story ground, !- Name