
OS:Version,
  {cb99b6da-b00d-4e15-a2c9-30baf77ebbbd}, !- Handle
  2.1.0;                                  !- Version Identifier

OS:Facility,
  {8f7cdef4-cf61-4200-a041-7d6eeb88a197}; !- Handle

OS:SimulationControl,
  {52e50613-4854-4e8d-8eb6-165e64fa8279}; !- Handle

OS:Sizing:Parameters,
  {8cd2bfcc-7ebf-4dab-b46e-5b1851c08304}, !- Handle
  1.25,                                   !- Heating Sizing Factor
  1.15;                                   !- Cooling Sizing Factor

OS:Timestep,
  {eb073c57-0c60-4b5f-8b28-b7139065f7af}, !- Handle
  6;                                      !- Number of Timesteps per Hour

OS:ShadowCalculation,
  {281313dc-0ff6-414e-a1a4-33a0e61d604b}, !- Handle
  20,                                     !- Calculation Frequency
  15000;                                  !- Maximum Figures in Shadow Overlap Calculations

OS:HeatBalanceAlgorithm,
  {d86b1b34-c768-4866-be2c-fb1f5c53dc22}, !- Handle
  ConductionTransferFunction,             !- Algorithm
  200;                                    !- Surface Temperature Upper Limit {C}

OS:RunPeriod,
  {9091d633-d806-4be5-b3ee-b18d6dec267b}, !- Handle
  Run Period 1,                           !- Name
  1,                                      !- Begin Month
  1,                                      !- Begin Day of Month
  12,                                     !- End Month
  31,                                     !- End Day of Month
  ,                                       !- Use Weather File Holidays and Special Days
  ,                                       !- Use Weather File Daylight Saving Period
  ,                                       !- Apply Weekend Holiday Rule
  ,                                       !- Use Weather File Rain Indicators
  ,                                       !- Use Weather File Snow Indicators
  ;                                       !- Number of Times Runperiod to be Repeated

OS:LifeCycleCost:Parameters,
  {674114cd-7320-4ab9-83ee-d4d255fbd457}, !- Handle
  ,                                       !- Analysis Type
  ,                                       !- Discounting Convention
  ,                                       !- Inflation Approach
  ,                                       !- Real Discount Rate
  ,                                       !- Nominal Discount Rate
  ,                                       !- Inflation
  ,                                       !- Base Date Month
  ,                                       !- Base Date Year
  ,                                       !- Service Date Month
  ,                                       !- Service Date Year
  ;                                       !- Length of Study Period in Years

OS:WeatherFile,
  {04a364af-e932-4d24-86c8-950ba9bea305}, !- Handle
  Denver Intl Ap,                         !- City
  CO,                                     !- State Province Region
  USA,                                    !- Country
  TMY3,                                   !- Data Source
  725650,                                 !- WMO Number
  39.83,                                  !- Latitude {deg}
  -104.65,                                !- Longitude {deg}
  -7,                                     !- Time Zone {hr}
  1650,                                   !- Elevation {m}
  file:////Users/dgoldwas/Documents/GitHub/NREL/OpenStudio-measures/NREL_integration_testing/weather/USA_CO_Denver.Intl.AP.725650_TMY3.epw, !- Url
  E23378AA;                               !- Checksum

OS:Site,
  {b0bdef40-d15e-4dde-acce-fa301124d68f}, !- Handle
  Denver Intl Ap_CO_USA,                  !- Name
  39.83,                                  !- Latitude {deg}
  -104.65,                                !- Longitude {deg}
  -7,                                     !- Time Zone {hr}
  1650,                                   !- Elevation {m}
  ;                                       !- Terrain

OS:ClimateZones,
  {cd7e19ef-e1d4-4490-8111-840af2347aaf}, !- Handle
  ,                                       !- Active Institution
  ,                                       !- Active Year
  ,                                       !- Climate Zone Institution Name 1
  ,                                       !- Climate Zone Document Name 1
  ,                                       !- Climate Zone Document Year 1
  5B;                                     !- Climate Zone Value 1

OS:Site:WaterMainsTemperature,
  {7bcc3f5b-c643-4f09-a970-bb9db6717422}, !- Handle
  Correlation,                            !- Calculation Method
  ,                                       !- Temperature Schedule Name
  10.8,                                   !- Annual Average Outdoor Air Temperature {C}
  23.2;                                   !- Maximum Difference In Monthly Average Outdoor Air Temperatures {deltaC}

OS:SizingPeriod:DesignDay,
  {c07043bc-b49c-460e-9a7d-f6311865b85f}, !- Handle
  Denver Intl Ap Ann Clg .4% Condns WB=>MDB, !- Name
  27.3,                                   !- Maximum Dry-Bulb Temperature {C}
  15.2,                                   !- Daily Dry-Bulb Temperature Range {deltaC}
  18.3,                                   !- Humidity Indicating Conditions at Maximum Dry-Bulb
  83011,                                  !- Barometric Pressure {Pa}
  4.2,                                    !- Wind Speed {m/s}
  80,                                     !- Wind Direction {deg}
  0,                                      !- Sky Clearness
  0,                                      !- Rain Indicator
  0,                                      !- Snow Indicator
  21,                                     !- Day of Month
  7,                                      !- Month
  SummerDesignDay,                        !- Day Type
  0,                                      !- Daylight Saving Time Indicator
  Wetbulb,                                !- Humidity Indicating Type
  ,                                       !- Humidity Indicating Day Schedule Name
  DefaultMultipliers,                     !- Dry-Bulb Temperature Range Modifier Type
  ,                                       !- Dry-Bulb Temperature Range Modifier Schedule Name
  ASHRAETau,                              !- Solar Model Indicator
  ,                                       !- Beam Solar Day Schedule Name
  ,                                       !- Diffuse Solar Day Schedule Name
  0.424,                                  !- ASHRAE Taub {dimensionless}
  2.012;                                  !- ASHRAE Taud {dimensionless}

OS:SizingPeriod:DesignDay,
  {3c7343e0-42d7-4cb3-9698-7fc1b815bb09}, !- Handle
  Denver Intl Ap Ann Clg .4% Condns DB=>MWB, !- Name
  34.6,                                   !- Maximum Dry-Bulb Temperature {C}
  15.2,                                   !- Daily Dry-Bulb Temperature Range {deltaC}
  15.7,                                   !- Humidity Indicating Conditions at Maximum Dry-Bulb
  83011,                                  !- Barometric Pressure {Pa}
  4.2,                                    !- Wind Speed {m/s}
  80,                                     !- Wind Direction {deg}
  0,                                      !- Sky Clearness
  0,                                      !- Rain Indicator
  0,                                      !- Snow Indicator
  21,                                     !- Day of Month
  7,                                      !- Month
  SummerDesignDay,                        !- Day Type
  0,                                      !- Daylight Saving Time Indicator
  Wetbulb,                                !- Humidity Indicating Type
  ,                                       !- Humidity Indicating Day Schedule Name
  DefaultMultipliers,                     !- Dry-Bulb Temperature Range Modifier Type
  ,                                       !- Dry-Bulb Temperature Range Modifier Schedule Name
  ASHRAETau,                              !- Solar Model Indicator
  ,                                       !- Beam Solar Day Schedule Name
  ,                                       !- Diffuse Solar Day Schedule Name
  0.424,                                  !- ASHRAE Taub {dimensionless}
  2.012;                                  !- ASHRAE Taud {dimensionless}

OS:SizingPeriod:DesignDay,
  {48d656e1-4c1c-4648-b94e-95c8d9031931}, !- Handle
  Denver Intl Ap Ann Htg 99.6% Condns DB, !- Name
  -17.4,                                  !- Maximum Dry-Bulb Temperature {C}
  0,                                      !- Daily Dry-Bulb Temperature Range {deltaC}
  -17.4,                                  !- Humidity Indicating Conditions at Maximum Dry-Bulb
  83011,                                  !- Barometric Pressure {Pa}
  3.3,                                    !- Wind Speed {m/s}
  160,                                    !- Wind Direction {deg}
  0,                                      !- Sky Clearness
  0,                                      !- Rain Indicator
  0,                                      !- Snow Indicator
  21,                                     !- Day of Month
  12,                                     !- Month
  WinterDesignDay,                        !- Day Type
  0,                                      !- Daylight Saving Time Indicator
  Wetbulb,                                !- Humidity Indicating Type
  ,                                       !- Humidity Indicating Day Schedule Name
  DefaultMultipliers,                     !- Dry-Bulb Temperature Range Modifier Type
  ,                                       !- Dry-Bulb Temperature Range Modifier Schedule Name
  ASHRAEClearSky;                         !- Solar Model Indicator

OS:SpaceType,
  {d3f31a3c-4ef2-4e63-ba80-35f124f99017}, !- Handle
  Office WholeBuilding - Lg Office - 90.1-2004, !- Name
  ,                                       !- Default Construction Set Name
  {6c9c64dc-577e-40c4-98be-6e5f22c6fa9c}, !- Default Schedule Set Name
  {0eb56ca1-ade1-4cd7-ae64-d8000ecbcf9c}, !- Group Rendering Name
  {85f1e76f-73ff-45da-ae1c-143646507be9}, !- Design Specification Outdoor Air Object Name
  Office,                                 !- Standards Building Type
  WholeBuilding - Lg Office;              !- Standards Space Type

OS:Rendering:Color,
  {0eb56ca1-ade1-4cd7-ae64-d8000ecbcf9c}, !- Handle
  Rendering Color 1,                      !- Name
  120,                                    !- Rendering Red Value
  230,                                    !- Rendering Green Value
  199;                                    !- Rendering Blue Value

OS:SpaceType,
  {52531360-57bb-4a03-a889-582e440299b5}, !- Handle
  Office OfficeLarge Data Center - 90.1-2004, !- Name
  ,                                       !- Default Construction Set Name
  {4a1dfd91-3998-4dc1-a5c5-017695c3353e}, !- Default Schedule Set Name
  {9cd9cb76-3d02-4028-8d0b-444bf71f2d25}, !- Group Rendering Name
  {a03b9850-e3e6-4437-929e-f21d7cc6b69b}, !- Design Specification Outdoor Air Object Name
  Office,                                 !- Standards Building Type
  OfficeLarge Data Center;                !- Standards Space Type

OS:Rendering:Color,
  {9cd9cb76-3d02-4028-8d0b-444bf71f2d25}, !- Handle
  Rendering Color 2,                      !- Name
  120,                                    !- Rendering Red Value
  230,                                    !- Rendering Green Value
  199;                                    !- Rendering Blue Value

OS:SpaceType,
  {629fdf45-65a2-4c49-a9b3-3adb28a60989}, !- Handle
  Office OfficeLarge Main Data Center - 90.1-2004, !- Name
  ,                                       !- Default Construction Set Name
  {6bf8b690-488e-4398-94b1-454a3f8a1216}, !- Default Schedule Set Name
  {1fb3fca6-4632-4c62-86ff-b0f1f2f03797}, !- Group Rendering Name
  {273e892a-cfaa-4005-bd38-54494d8ce1dc}, !- Design Specification Outdoor Air Object Name
  Office,                                 !- Standards Building Type
  OfficeLarge Main Data Center;           !- Standards Space Type

OS:Rendering:Color,
  {1fb3fca6-4632-4c62-86ff-b0f1f2f03797}, !- Handle
  Rendering Color 3,                      !- Name
  120,                                    !- Rendering Red Value
  230,                                    !- Rendering Green Value
  199;                                    !- Rendering Blue Value

OS:Building,
  {112babd1-4acb-46d0-b17f-45021133992f}, !- Handle
  90.1-2004|LargeOffice,                  !- Name
  ,                                       !- Building Sector Type
  ,                                       !- North Axis {deg}
  ,                                       !- Nominal Floor to Floor Height {m}
  ,                                       !- Space Type Name
  {a0c3d6c6-863c-43a6-b173-2aa9b17dd88d}, !- Default Construction Set Name
  ,                                       !- Default Schedule Set Name
  ,                                       !- Standards Number of Stories
  ,                                       !- Standards Number of Above Ground Stories
  Office;                                 !- Standards Building Type

OS:BuildingStory,
  {bd751701-9d2c-4994-87ba-bb28396ad597}, !- Handle
  Story B1,                               !- Name
  -3.9624,                                !- Nominal Z Coordinate {m}
  3.9624,                                 !- Nominal Floor to Floor Height {m}
  ,                                       !- Default Construction Set Name
  ,                                       !- Default Schedule Set Name
  ;                                       !- Group Rendering Name

OS:Space,
  {2dcdc76a-2e0d-4dee-9d7c-e00816973b1c}, !- Handle
  Office WholeBuilding - Lg Office A end_a - Story B1, !- Name
  {d3f31a3c-4ef2-4e63-ba80-35f124f99017}, !- Space Type Name
  ,                                       !- Default Construction Set Name
  ,                                       !- Default Schedule Set Name
  -0,                                     !- Direction of Relative North {deg}
  -28.3543403270931,                      !- X Origin {m}
  -18.9028935513954,                      !- Y Origin {m}
  -3.9624,                                !- Z Origin {m}
  {bd751701-9d2c-4994-87ba-bb28396ad597}, !- Building Story Name
  {49bea6e9-0218-4780-b3b7-4213c1c1bf96}; !- Thermal Zone Name

OS:Surface,
  {fa89c91a-5280-403c-b884-3f431366cb1e}, !- Handle
  Surface 1,                              !- Name
  Floor,                                  !- Surface Type
  ,                                       !- Construction Name
  {2dcdc76a-2e0d-4dee-9d7c-e00816973b1c}, !- Space Name
  Ground,                                 !- Outside Boundary Condition
  ,                                       !- Outside Boundary Condition Object
  NoSun,                                  !- Sun Exposure
  NoWind,                                 !- Wind Exposure
  ,                                       !- View Factor to Ground
  ,                                       !- Number of Vertices
  -4.61852778244065e-14, -3.19744231092045e-14, 0, !- X,Y,Z Vertex 1 {m}
  -4.61852778244065e-14, 4.57199999999997, 0, !- X,Y,Z Vertex 2 {m}
  4.57199999999996, 4.57199999999997, 0,  !- X,Y,Z Vertex 3 {m}
  4.57199999999996, -3.19744231092045e-14, 0; !- X,Y,Z Vertex 4 {m}

OS:Surface,
  {b5b7243e-6eb2-4c1a-82cb-0c9ea875b0be}, !- Handle
  Surface 2,                              !- Name
  Wall,                                   !- Surface Type
  ,                                       !- Construction Name
  {2dcdc76a-2e0d-4dee-9d7c-e00816973b1c}, !- Space Name
  Ground,                                 !- Outside Boundary Condition
  ,                                       !- Outside Boundary Condition Object
  NoSun,                                  !- Sun Exposure
  NoWind,                                 !- Wind Exposure
  ,                                       !- View Factor to Ground
  ,                                       !- Number of Vertices
  -4.61852778244065e-14, 4.57199999999997, 3.9624, !- X,Y,Z Vertex 1 {m}
  -4.61852778244065e-14, 4.57199999999997, 0, !- X,Y,Z Vertex 2 {m}
  -4.61852778244065e-14, -3.19744231092045e-14, 0, !- X,Y,Z Vertex 3 {m}
  -4.61852778244065e-14, -3.19744231092045e-14, 3.9624; !- X,Y,Z Vertex 4 {m}

OS:Surface,
  {8cb611cd-3a83-4838-8b8e-2e1364fdd24b}, !- Handle
  Surface 3,                              !- Name
  Wall,                                   !- Surface Type
  ,                                       !- Construction Name
  {2dcdc76a-2e0d-4dee-9d7c-e00816973b1c}, !- Space Name
  Surface,                                !- Outside Boundary Condition
  {7fc4f3f5-b07a-405b-876b-f6e40b533ba4}, !- Outside Boundary Condition Object
  NoSun,                                  !- Sun Exposure
  NoWind,                                 !- Wind Exposure
  ,                                       !- View Factor to Ground
  ,                                       !- Number of Vertices
  4.57199999999996, 4.57199999999997, 3.9624, !- X,Y,Z Vertex 1 {m}
  4.57199999999996, 4.57199999999997, 0,  !- X,Y,Z Vertex 2 {m}
  -4.61852778244065e-14, 4.57199999999997, 0, !- X,Y,Z Vertex 3 {m}
  -4.61852778244065e-14, 4.57199999999997, 3.9624; !- X,Y,Z Vertex 4 {m}

OS:Surface,
  {2df14976-fc7f-43aa-b319-9560e1ed5fcb}, !- Handle
  Surface 4,                              !- Name
  Wall,                                   !- Surface Type
  ,                                       !- Construction Name
  {2dcdc76a-2e0d-4dee-9d7c-e00816973b1c}, !- Space Name
  Surface,                                !- Outside Boundary Condition
  {6808cd72-204c-40cb-9847-ca089bb5fb26}, !- Outside Boundary Condition Object
  NoSun,                                  !- Sun Exposure
  NoWind,                                 !- Wind Exposure
  ,                                       !- View Factor to Ground
  ,                                       !- Number of Vertices
  4.57199999999996, -3.19744231092045e-14, 3.9624, !- X,Y,Z Vertex 1 {m}
  4.57199999999996, -3.19744231092045e-14, 0, !- X,Y,Z Vertex 2 {m}
  4.57199999999996, 4.57199999999997, 0,  !- X,Y,Z Vertex 3 {m}
  4.57199999999996, 4.57199999999997, 3.9624; !- X,Y,Z Vertex 4 {m}

OS:Surface,
  {22e948bc-df9f-4058-893e-271b35fa7104}, !- Handle
  Surface 5,                              !- Name
  Wall,                                   !- Surface Type
  ,                                       !- Construction Name
  {2dcdc76a-2e0d-4dee-9d7c-e00816973b1c}, !- Space Name
  Ground,                                 !- Outside Boundary Condition
  ,                                       !- Outside Boundary Condition Object
  NoSun,                                  !- Sun Exposure
  NoWind,                                 !- Wind Exposure
  ,                                       !- View Factor to Ground
  ,                                       !- Number of Vertices
  -4.61852778244065e-14, -3.19744231092045e-14, 3.9624, !- X,Y,Z Vertex 1 {m}
  -4.61852778244065e-14, -3.19744231092045e-14, 0, !- X,Y,Z Vertex 2 {m}
  4.57199999999996, -3.19744231092045e-14, 0, !- X,Y,Z Vertex 3 {m}
  4.57199999999996, -3.19744231092045e-14, 3.9624; !- X,Y,Z Vertex 4 {m}

OS:Surface,
  {bbc98600-5643-4cb7-ae50-5da73c4ffe5b}, !- Handle
  Surface 6,                              !- Name
  RoofCeiling,                            !- Surface Type
  ,                                       !- Construction Name
  {2dcdc76a-2e0d-4dee-9d7c-e00816973b1c}, !- Space Name
  Surface,                                !- Outside Boundary Condition
  {59750324-6aba-434c-b750-5555072a11ee}, !- Outside Boundary Condition Object
  NoSun,                                  !- Sun Exposure
  NoWind,                                 !- Wind Exposure
  ,                                       !- View Factor to Ground
  ,                                       !- Number of Vertices
  4.57199999999996, -3.19744231092045e-14, 3.9624, !- X,Y,Z Vertex 1 {m}
  4.57199999999996, 4.57199999999997, 3.9624, !- X,Y,Z Vertex 2 {m}
  -4.61852778244065e-14, 4.57199999999997, 3.9624, !- X,Y,Z Vertex 3 {m}
  -4.61852778244065e-14, -3.19744231092045e-14, 3.9624; !- X,Y,Z Vertex 4 {m}

OS:ThermalZone,
  {49bea6e9-0218-4780-b3b7-4213c1c1bf96}, !- Handle
  Zone Office WholeBuilding - Lg Office A end_a - Story B1, !- Name
  1,                                      !- Multiplier
  ,                                       !- Ceiling Height {m}
  ,                                       !- Volume {m3}
  ,                                       !- Floor Area {m2}
  ,                                       !- Zone Inside Convection Algorithm
  ,                                       !- Zone Outside Convection Algorithm
  ,                                       !- Zone Conditioning Equipment List Name
  {a608944d-e938-445b-b611-c800611dffb3}, !- Zone Air Inlet Port List
  {5be9ba22-01b5-4cbf-9928-14e46e0ddbdb}, !- Zone Air Exhaust Port List
  {02590ac0-fb30-4b0a-8f64-28b2e2b71e71}, !- Zone Air Node Name
  {9b26f240-b17b-409f-8359-228481751a3f}, !- Zone Return Air Node Name
  ,                                       !- Primary Daylighting Control Name
  ,                                       !- Fraction of Zone Controlled by Primary Daylighting Control
  ,                                       !- Secondary Daylighting Control Name
  ,                                       !- Fraction of Zone Controlled by Secondary Daylighting Control
  ,                                       !- Illuminance Map Name
  ,                                       !- Group Rendering Name
  {9edd4bc2-2fee-4b3e-9e81-2de2b0a0e867}, !- Thermostat Name
  No;                                     !- Use Ideal Air Loads

OS:Node,
  {c39695b1-ac41-4b57-96b8-798fca8305a9}, !- Handle
  Node 1,                                 !- Name
  {02590ac0-fb30-4b0a-8f64-28b2e2b71e71}, !- Inlet Port
  ;                                       !- Outlet Port

OS:Connection,
  {02590ac0-fb30-4b0a-8f64-28b2e2b71e71}, !- Handle
  {f0ba3acf-50b1-41b7-849f-916320ee5144}, !- Name
  {49bea6e9-0218-4780-b3b7-4213c1c1bf96}, !- Source Object
  11,                                     !- Outlet Port
  {c39695b1-ac41-4b57-96b8-798fca8305a9}, !- Target Object
  2;                                      !- Inlet Port

OS:PortList,
  {a608944d-e938-445b-b611-c800611dffb3}, !- Handle
  Port List 1,                            !- Name
  {49bea6e9-0218-4780-b3b7-4213c1c1bf96}, !- HVAC Component
  {92c9ee9e-f6c3-4242-8779-ce60e7a80051}; !- Port 1

OS:PortList,
  {5be9ba22-01b5-4cbf-9928-14e46e0ddbdb}, !- Handle
  Port List 2,                            !- Name
  {49bea6e9-0218-4780-b3b7-4213c1c1bf96}; !- HVAC Component

OS:Sizing:Zone,
  {1c6a4935-0e75-49b2-9adf-adc347214c2e}, !- Handle
  {49bea6e9-0218-4780-b3b7-4213c1c1bf96}, !- Zone or ZoneList Name
  SupplyAirTemperature,                   !- Zone Cooling Design Supply Air Temperature Input Method
  12.8,                                   !- Zone Cooling Design Supply Air Temperature {C}
  11.11,                                  !- Zone Cooling Design Supply Air Temperature Difference {deltaC}
  SupplyAirTemperature,                   !- Zone Heating Design Supply Air Temperature Input Method
  40.0000000000001,                       !- Zone Heating Design Supply Air Temperature {C}
  11.11,                                  !- Zone Heating Design Supply Air Temperature Difference {deltaC}
  0.0085,                                 !- Zone Cooling Design Supply Air Humidity Ratio {kg-H2O/kg-air}
  0.008,                                  !- Zone Heating Design Supply Air Humidity Ratio {kg-H2O/kg-air}
  ,                                       !- Zone Heating Sizing Factor
  ,                                       !- Zone Cooling Sizing Factor
  DesignDayWithLimit,                     !- Cooling Design Air Flow Method
  ,                                       !- Cooling Design Air Flow Rate {m3/s}
  ,                                       !- Cooling Minimum Air Flow per Zone Floor Area {m3/s-m2}
  ,                                       !- Cooling Minimum Air Flow {m3/s}
  ,                                       !- Cooling Minimum Air Flow Fraction
  DesignDay,                              !- Heating Design Air Flow Method
  ,                                       !- Heating Design Air Flow Rate {m3/s}
  ,                                       !- Heating Maximum Air Flow per Zone Floor Area {m3/s-m2}
  ,                                       !- Heating Maximum Air Flow {m3/s}
  ,                                       !- Heating Maximum Air Flow Fraction
  ,                                       !- Design Zone Air Distribution Effectiveness in Cooling Mode
  ,                                       !- Design Zone Air Distribution Effectiveness in Heating Mode
  No,                                     !- Account for Dedicated Outdoor Air System
  NeutralSupplyAir,                       !- Dedicated Outdoor Air System Control Strategy
  autosize,                               !- Dedicated Outdoor Air Low Setpoint Temperature for Design {C}
  autosize;                               !- Dedicated Outdoor Air High Setpoint Temperature for Design {C}

OS:ZoneHVAC:EquipmentList,
  {47866137-cc31-41bd-ad17-2dfd43262340}, !- Handle
  Zone HVAC Equipment List 1,             !- Name
  {49bea6e9-0218-4780-b3b7-4213c1c1bf96}, !- Thermal Zone
  {1518c02a-ca2e-41ce-a347-ce2de7c70c8f}, !- Zone Equipment 1
  1,                                      !- Zone Equipment Cooling Sequence 1
  1;                                      !- Zone Equipment Heating or No-Load Sequence 1

OS:Space,
  {07a6e20a-765d-4c72-90b7-1dbb0fe592f1}, !- Handle
  Office WholeBuilding - Lg Office B end_a - Story B1, !- Name
  {d3f31a3c-4ef2-4e63-ba80-35f124f99017}, !- Space Type Name
  ,                                       !- Default Construction Set Name
  ,                                       !- Default Schedule Set Name
  -0,                                     !- Direction of Relative North {deg}
  -28.3543403270931,                      !- X Origin {m}
  -14.3308935513954,                      !- Y Origin {m}
  -3.9624,                                !- Z Origin {m}
  {bd751701-9d2c-4994-87ba-bb28396ad597}, !- Building Story Name
  {c4384c9e-0baa-4cbb-b984-276b383f2c80}; !- Thermal Zone Name

OS:Surface,
  {beb0e038-64e7-40e9-826a-4314d6f2f96a}, !- Handle
  Surface 7,                              !- Name
  Floor,                                  !- Surface Type
  ,                                       !- Construction Name
  {07a6e20a-765d-4c72-90b7-1dbb0fe592f1}, !- Space Name
  Ground,                                 !- Outside Boundary Condition
  ,                                       !- Outside Boundary Condition Object
  NoSun,                                  !- Sun Exposure
  NoWind,                                 !- Wind Exposure
  ,                                       !- View Factor to Ground
  ,                                       !- Number of Vertices
  -4.61852778244065e-14, -3.01980662698043e-14, 0, !- X,Y,Z Vertex 1 {m}
  -4.61852778244065e-14, 28.6617871027908, 0, !- X,Y,Z Vertex 2 {m}
  4.57199999999996, 28.6617871027908, 0,  !- X,Y,Z Vertex 3 {m}
  4.57199999999996, -3.01980662698043e-14, 0; !- X,Y,Z Vertex 4 {m}

OS:Surface,
  {2d151803-975b-43f3-8b5a-8e68eba05cd0}, !- Handle
  Surface 8,                              !- Name
  Wall,                                   !- Surface Type
  ,                                       !- Construction Name
  {07a6e20a-765d-4c72-90b7-1dbb0fe592f1}, !- Space Name
  Ground,                                 !- Outside Boundary Condition
  ,                                       !- Outside Boundary Condition Object
  NoSun,                                  !- Sun Exposure
  NoWind,                                 !- Wind Exposure
  ,                                       !- View Factor to Ground
  ,                                       !- Number of Vertices
  -4.61852778244065e-14, 28.6617871027908, 3.9624, !- X,Y,Z Vertex 1 {m}
  -4.61852778244065e-14, 28.6617871027908, 0, !- X,Y,Z Vertex 2 {m}
  -4.61852778244065e-14, -3.01980662698043e-14, 0, !- X,Y,Z Vertex 3 {m}
  -4.61852778244065e-14, -3.01980662698043e-14, 3.9624; !- X,Y,Z Vertex 4 {m}

OS:Surface,
  {f2942583-a3ac-40ec-910e-525399ed15c5}, !- Handle
  Surface 9,                              !- Name
  Wall,                                   !- Surface Type
  ,                                       !- Construction Name
  {07a6e20a-765d-4c72-90b7-1dbb0fe592f1}, !- Space Name
  Surface,                                !- Outside Boundary Condition
  {4a2b1a34-b2bc-4c35-8f75-85d3777cd315}, !- Outside Boundary Condition Object
  NoSun,                                  !- Sun Exposure
  NoWind,                                 !- Wind Exposure
  ,                                       !- View Factor to Ground
  ,                                       !- Number of Vertices
  4.57199999999996, 28.6617871027908, 3.9624, !- X,Y,Z Vertex 1 {m}
  4.57199999999996, 28.6617871027908, 0,  !- X,Y,Z Vertex 2 {m}
  -4.61852778244065e-14, 28.6617871027908, 0, !- X,Y,Z Vertex 3 {m}
  -4.61852778244065e-14, 28.6617871027908, 3.9624; !- X,Y,Z Vertex 4 {m}

OS:Surface,
  {053cd6dc-3557-430c-a535-98c876769be5}, !- Handle
  Surface 10,                             !- Name
  Wall,                                   !- Surface Type
  ,                                       !- Construction Name
  {07a6e20a-765d-4c72-90b7-1dbb0fe592f1}, !- Space Name
  Surface,                                !- Outside Boundary Condition
  {f5826000-7f8a-4f8a-90af-b9e907400cac}, !- Outside Boundary Condition Object
  NoSun,                                  !- Sun Exposure
  NoWind,                                 !- Wind Exposure
  ,                                       !- View Factor to Ground
  ,                                       !- Number of Vertices
  4.57199999999996, -3.01980662698043e-14, 3.9624, !- X,Y,Z Vertex 1 {m}
  4.57199999999996, -3.01980662698043e-14, 0, !- X,Y,Z Vertex 2 {m}